<?xml version="1.0" encoding="UTF-8"?>

<!-- generated on 2025-03-15 18:30:50.273728 by osmWebWizard.py v1_22_0+0002-63e50f52594
<configuration>
    <net-file value="C:\Users\user\Sumo\2025-03-15-18-30-05\osm.net.xml.gz"/>
    <output-trip-file value="C:\Users\user\Sumo\2025-03-15-18-30-05\osm.bicycle.trips.xml"/>
    <route-file value="C:\Users\user\Sumo\2025-03-15-18-30-05\osm.bicycle.rou.xml"/>
    <prefix value="bike"/>
    <trip-attributes value="departLane=&quot;best&quot;"/>
    <fringe-start-attributes value="departSpeed=&quot;max&quot;"/>
    <vehicle-class value="bicycle"/>
    <fringe-factor value="2"/>
    <vclass value="bicycle"/>
    <via-edge-types value="highway.motorway,highway.motorway_link,highway.trunk_link,highway.primary_link,highway.secondary_link,highway.tertiary_link"/>
    <max-distance value="8000.0"/>
    <remove-loops value="True"/>
    <validate value="True"/>
    <insertion-density value="4.2"/>
</configuration>
-->

<!-- generated on 2025-03-15 18:30:49 by Eclipse SUMO duarouter Version 1.22.0
<duarouterConfiguration xmlns:xsi="http://www.w3.org/2001/XMLSchema-instance" xsi:noNamespaceSchemaLocation="http://sumo.dlr.de/xsd/duarouterConfiguration.xsd">

    <input>
        <net-file value="C:\Users\user\Sumo\2025-03-15-18-30-05\osm.net.xml.gz"/>
        <route-files value="C:\Users\user\Sumo\2025-03-15-18-30-05\osm.bicycle.trips.xml"/>
    </input>

    <output>
        <output-file value="C:\Users\user\Sumo\2025-03-15-18-30-05\osm.bicycle.trips.xml.tmp"/>
        <alternatives-output value="NUL"/>
        <write-trips value="true"/>
    </output>

    <processing>
        <remove-loops value="true"/>
    </processing>

    <time>
        <begin value="0.0"/>
        <end value="3600.0"/>
    </time>

    <report>
        <no-warnings value="true"/>
        <ignore-errors value="true"/>
        <no-step-log value="true"/>
    </report>

</duarouterConfiguration>
-->

<routes xmlns:xsi="http://www.w3.org/2001/XMLSchema-instance" xsi:noNamespaceSchemaLocation="http://sumo.dlr.de/xsd/routes_file.xsd">
    <vType id="bike_bicycle" vClass="bicycle"/>
    <trip id="bike0" type="bike_bicycle" depart="0.00" departLane="best" departSpeed="max" from="390519494#0" to="-13985265#3"/>
    <trip id="bike1" type="bike_bicycle" depart="2.41" departLane="best" from="-4709219#0" to="-4709188#0"/>
    <trip id="bike2" type="bike_bicycle" depart="4.81" departLane="best" from="4693394#3" to="460117241#2"/>
    <trip id="bike4" type="bike_bicycle" depart="9.62" departLane="best" from="585425470#3" to="-13986804#0"/>
    <trip id="bike5" type="bike_bicycle" depart="12.03" departLane="best" from="-460775412#1" to="-13985268#0"/>
    <trip id="bike6" type="bike_bicycle" depart="14.43" departLane="best" from="13985249" to="466067437#3"/>
    <trip id="bike8" type="bike_bicycle" depart="19.25" departLane="best" from="4648013#2" to="20551341#3"/>
    <trip id="bike10" type="bike_bicycle" depart="24.06" departLane="best" from="48525667#2" to="-466067422#5"/>
    <trip id="bike11" type="bike_bicycle" depart="26.46" departLane="best" from="-48526982#1" to="-435496777#0"/>
    <trip id="bike12" type="bike_bicycle" depart="28.87" departLane="best" departSpeed="max" from="605944456" to="525162459#2"/>
    <trip id="bike14" type="bike_bicycle" depart="33.68" departLane="best" from="49326667#0" to="-390204457#4"/>
    <trip id="bike16" type="bike_bicycle" depart="38.49" departLane="best" from="13984261#3" to="757646627"/>
    <trip id="bike18" type="bike_bicycle" depart="43.30" departLane="best" from="-48526986#4" to="-402177031#1"/>
    <trip id="bike20" type="bike_bicycle" depart="48.11" departLane="best" from="460117245#2" to="13987473#0"/>
    <trip id="bike21" type="bike_bicycle" depart="50.52" departLane="best" from="466067422#4" to="-48525992"/>
    <trip id="bike25" type="bike_bicycle" depart="60.14" departLane="best" from="49326901#1" to="-4693412#0"/>
    <trip id="bike29" type="bike_bicycle" depart="69.76" departLane="best" from="-428067046#3" to="-588642835#0"/>
    <trip id="bike32" type="bike_bicycle" depart="76.98" departLane="best" from="49326659#2" to="4750852#3"/>
    <trip id="bike33" type="bike_bicycle" depart="79.39" departLane="best" from="466067427#1" to="-13986808#0"/>
    <trip id="bike34" type="bike_bicycle" depart="81.79" departLane="best" from="-48484870" to="-4750845#2"/>
    <trip id="bike35" type="bike_bicycle" depart="84.20" departLane="best" from="-460117246#7" to="592365294"/>
    <trip id="bike36" type="bike_bicycle" depart="86.60" departLane="best" from="545913063#0" to="-49326659#1"/>
    <trip id="bike39" type="bike_bicycle" depart="93.82" departLane="best" from="4709201#2" to="-4709229#1"/>
    <trip id="bike40" type="bike_bicycle" depart="96.23" departLane="best" from="-13987463#11" to="-4750829#7"/>
    <trip id="bike41" type="bike_bicycle" depart="98.63" departLane="best" from="20547020#4" to="-588642835#2"/>
    <trip id="bike43" type="bike_bicycle" depart="103.44" departLane="best" departSpeed="max" from="991157800" to="13986805#0"/>
    <trip id="bike46" type="bike_bicycle" depart="110.66" departLane="best" from="-4750841#1" to="592377337#0"/>
    <trip id="bike47" type="bike_bicycle" depart="113.07" departLane="best" departSpeed="max" from="-13987742" to="-588738400#0"/>
    <trip id="bike49" type="bike_bicycle" depart="117.88" departLane="best" from="-723815318#2" to="545672704"/>
    <trip id="bike51" type="bike_bicycle" depart="122.69" departLane="best" departSpeed="max" from="435496779#0" to="20546957#3"/>
    <trip id="bike54" type="bike_bicycle" depart="129.91" departLane="best" from="-591007468" to="592377343"/>
    <trip id="bike55" type="bike_bicycle" depart="132.31" departLane="best" departSpeed="max" from="545913060#0" to="-4750838#0"/>
    <trip id="bike56" type="bike_bicycle" depart="134.72" departLane="best" from="757646636#1" to="-460117248#1"/>
    <trip id="bike57" type="bike_bicycle" depart="137.12" departLane="best" from="588738402" to="545913108#0"/>
    <trip id="bike58" type="bike_bicycle" depart="139.53" departLane="best" from="-4750838#0" to="428079977"/>
    <trip id="bike62" type="bike_bicycle" depart="149.15" departLane="best" from="-1011078576#2" to="-49326680#2"/>
    <trip id="bike64" type="bike_bicycle" depart="153.96" departLane="best" from="545913068" to="-49326665#1"/>
    <trip id="bike65" type="bike_bicycle" depart="156.37" departLane="best" from="-4750854#0" to="-20546961"/>
    <trip id="bike66" type="bike_bicycle" depart="158.77" departLane="best" from="545913066#4" to="592369191"/>
    <trip id="bike70" type="bike_bicycle" depart="168.40" departLane="best" from="-592377337#0" to="20547038"/>
    <trip id="bike74" type="bike_bicycle" depart="178.02" departLane="best" from="-460084104" to="-49326658#11"/>
    <trip id="bike76" type="bike_bicycle" depart="182.83" departLane="best" from="-590526264#1" to="13987463#5"/>
    <trip id="bike78" type="bike_bicycle" depart="187.64" departLane="best" from="-48526930#1" to="20551341#0"/>
    <trip id="bike80" type="bike_bicycle" depart="192.45" departLane="best" from="-20546957#4" to="428067046#0"/>
    <trip id="bike81" type="bike_bicycle" depart="194.86" departLane="best" from="-466067427#0" to="590241338"/>
    <trip id="bike89" type="bike_bicycle" depart="214.10" departLane="best" from="-588642835#1" to="-991859795"/>
    <trip id="bike92" type="bike_bicycle" depart="221.32" departLane="best" from="-578519315" to="-530780517#0"/>
    <trip id="bike95" type="bike_bicycle" depart="228.54" departLane="best" from="585425470#3" to="48525667#1"/>
    <trip id="bike97" type="bike_bicycle" depart="233.35" departLane="best" from="-590772368#1" to="-545672782#1"/>
    <trip id="bike99" type="bike_bicycle" depart="238.16" departLane="best" departSpeed="max" from="991859795" to="49326678#1"/>
    <trip id="bike100" type="bike_bicycle" depart="240.57" departLane="best" from="723811123#1" to="590983899#1"/>
    <trip id="bike106" type="bike_bicycle" depart="255.00" departLane="best" from="-591858959#0" to="-592377338#0"/>
    <trip id="bike113" type="bike_bicycle" depart="271.84" departLane="best" from="-770918052" to="525162459#3"/>
    <trip id="bike115" type="bike_bicycle" depart="276.65" departLane="best" from="20547032#2" to="-463758252"/>
    <trip id="bike117" type="bike_bicycle" depart="281.46" departLane="best" from="-466067441#2" to="-401753885#0"/>
    <trip id="bike121" type="bike_bicycle" depart="291.09" departLane="best" departSpeed="max" from="-991157799" to="592116097#0"/>
    <trip id="bike123" type="bike_bicycle" depart="295.90" departLane="best" from="-466067455" to="-590809208#0"/>
    <trip id="bike124" type="bike_bicycle" depart="298.30" departLane="best" departSpeed="max" from="435134246" to="-48526982#2"/>
    <trip id="bike127" type="bike_bicycle" depart="305.52" departLane="best" departSpeed="max" from="991157802" to="971433340"/>
    <trip id="bike130" type="bike_bicycle" depart="312.74" departLane="best" from="-545913105#0" to="579234150#4"/>
    <trip id="bike131" type="bike_bicycle" depart="315.14" departLane="best" from="49326898" to="-435512521#1"/>
    <trip id="bike132" type="bike_bicycle" depart="317.55" departLane="best" from="-49326653#3" to="-466067438#1"/>
    <trip id="bike135" type="bike_bicycle" depart="324.77" departLane="best" from="-48525990#0" to="-48526981#4"/>
    <trip id="bike136" type="bike_bicycle" depart="327.17" departLane="best" from="428067054#3" to="592137666#1"/>
    <trip id="bike137" type="bike_bicycle" depart="329.58" departLane="best" departSpeed="max" from="-390204453#1" to="-390581196#3"/>
    <trip id="bike138" type="bike_bicycle" depart="331.98" departLane="best" from="-20549433#15" to="-20548866#3"/>
    <trip id="bike141" type="bike_bicycle" depart="339.20" departLane="best" from="-390204453#0" to="-4750838#3"/>
    <trip id="bike142" type="bike_bicycle" depart="341.61" departLane="best" departSpeed="max" from="-608890999#1" to="-590232065#1"/>
    <trip id="bike146" type="bike_bicycle" depart="351.23" departLane="best" from="390204459#5" to="4750829#3"/>
    <trip id="bike148" type="bike_bicycle" depart="356.04" departLane="best" from="-588738402" to="-1331842467"/>
    <trip id="bike153" type="bike_bicycle" depart="368.07" departLane="best" from="-4750854#0" to="588685689"/>
    <trip id="bike154" type="bike_bicycle" depart="370.47" departLane="best" from="4750847#0" to="545672704"/>
    <trip id="bike155" type="bike_bicycle" depart="372.88" departLane="best" from="580528155#1" to="-4693412#3"/>
    <trip id="bike157" type="bike_bicycle" depart="377.69" departLane="best" from="4717287#1" to="579323358#0"/>
    <trip id="bike158" type="bike_bicycle" depart="380.10" departLane="best" from="579252758#1" to="-427818588#0"/>
    <trip id="bike160" type="bike_bicycle" depart="384.91" departLane="best" from="-525162457#0" to="-757646636#5"/>
    <trip id="bike163" type="bike_bicycle" depart="392.12" departLane="best" from="-48526147#0" to="-591858961#1"/>
    <trip id="bike164" type="bike_bicycle" depart="394.53" departLane="best" from="4750861#1" to="545913065"/>
    <trip id="bike165" type="bike_bicycle" depart="396.94" departLane="best" from="48525834#6" to="4750844#0"/>
    <trip id="bike166" type="bike_bicycle" depart="399.34" departLane="best" departSpeed="max" from="4740621#0" to="-363662928"/>
    <trip id="bike167" type="bike_bicycle" depart="401.75" departLane="best" departSpeed="max" from="532618596#0" to="530791151#0"/>
    <trip id="bike169" type="bike_bicycle" depart="406.56" departLane="best" from="-592116098#0" to="-49326652#4"/>
    <trip id="bike171" type="bike_bicycle" depart="411.37" departLane="best" from="13984261#6" to="-466067422#0"/>
    <trip id="bike172" type="bike_bicycle" depart="413.78" departLane="best" from="-48525992" to="545913066#1"/>
    <trip id="bike173" type="bike_bicycle" depart="416.18" departLane="best" from="699932342#1" to="48525667#4"/>
    <trip id="bike174" type="bike_bicycle" depart="418.59" departLane="best" from="390581209" to="-590983893#0"/>
    <trip id="bike175" type="bike_bicycle" depart="420.99" departLane="best" departSpeed="max" from="773641184#0" to="-20546957#0"/>
    <trip id="bike176" type="bike_bicycle" depart="423.40" departLane="best" from="592116098#1" to="-390581196#2"/>
    <trip id="bike177" type="bike_bicycle" depart="425.80" departLane="best" from="723815317#4" to="-460117248#0"/>
    <trip id="bike178" type="bike_bicycle" depart="428.21" departLane="best" from="608660846#2" to="4750841#3"/>
    <trip id="bike180" type="bike_bicycle" depart="433.02" departLane="best" from="466067441#0" to="-49326658#7"/>
    <trip id="bike188" type="bike_bicycle" depart="452.27" departLane="best" from="428067054#7" to="-49326913#0"/>
    <trip id="bike189" type="bike_bicycle" depart="454.67" departLane="best" from="4750882#0" to="50599077"/>
    <trip id="bike190" type="bike_bicycle" depart="457.08" departLane="best" from="-465267600#2" to="-48526986#0"/>
    <trip id="bike191" type="bike_bicycle" depart="459.48" departLane="best" from="-4750858#1" to="592116099#1"/>
    <trip id="bike193" type="bike_bicycle" depart="464.29" departLane="best" departSpeed="max" from="-246446006#4" to="-592377324"/>
    <trip id="bike194" type="bike_bicycle" depart="466.70" departLane="best" from="592137663#0" to="460117241#3"/>
    <trip id="bike196" type="bike_bicycle" depart="471.51" departLane="best" from="-4750841#8" to="20547034"/>
    <trip id="bike197" type="bike_bicycle" depart="473.92" departLane="best" from="-1011078576#1" to="-48525951#1"/>
    <trip id="bike201" type="bike_bicycle" depart="483.54" departLane="best" from="-592369194" to="588738398"/>
    <trip id="bike202" type="bike_bicycle" depart="485.95" departLane="best" from="4750847#0" to="460084107#2"/>
    <trip id="bike211" type="bike_bicycle" depart="507.60" departLane="best" from="435512527#4" to="465267600#5"/>
    <trip id="bike217" type="bike_bicycle" depart="522.03" departLane="best" from="958035015#4" to="157837955#1"/>
    <trip id="bike219" type="bike_bicycle" depart="526.84" departLane="best" from="-591858961#2" to="48526068#3"/>
    <trip id="bike220" type="bike_bicycle" depart="529.25" departLane="best" from="428080112#1" to="955774159"/>
    <trip id="bike222" type="bike_bicycle" depart="534.06" departLane="best" from="-579234150#5" to="390597005"/>
    <trip id="bike224" type="bike_bicycle" depart="538.87" departLane="best" from="49326646#1" to="20547034"/>
    <trip id="bike229" type="bike_bicycle" depart="550.90" departLane="best" from="205780095#1" to="-4750858#2"/>
    <trip id="bike230" type="bike_bicycle" depart="553.30" departLane="best" departSpeed="max" from="-20547026#1" to="-48525949#0"/>
    <trip id="bike232" type="bike_bicycle" depart="558.12" departLane="best" from="13985249" to="-428067056#0"/>
    <trip id="bike234" type="bike_bicycle" depart="562.93" departLane="best" from="460117246#9" to="-20547035"/>
    <trip id="bike237" type="bike_bicycle" depart="570.14" departLane="best" from="-581192086#6" to="590232064"/>
    <trip id="bike238" type="bike_bicycle" depart="572.55" departLane="best" from="20547020#2" to="-465267600#1"/>
    <trip id="bike240" type="bike_bicycle" depart="577.36" departLane="best" departSpeed="max" from="-530765260#2" to="-1190768693"/>
    <trip id="bike242" type="bike_bicycle" depart="582.17" departLane="best" from="49326680#6" to="-592377344"/>
    <trip id="bike244" type="bike_bicycle" depart="586.98" departLane="best" from="13985259#1" to="390204457#1"/>
    <trip id="bike246" type="bike_bicycle" depart="591.79" departLane="best" from="-590456084" to="-13986798"/>
    <trip id="bike247" type="bike_bicycle" depart="594.20" departLane="best" from="-48526921#1" to="460117245#0"/>
    <trip id="bike248" type="bike_bicycle" depart="596.61" departLane="best" from="-579234150#0" to="-435512536"/>
    <trip id="bike252" type="bike_bicycle" depart="606.23" departLane="best" from="-13985251" to="435134240#2"/>
    <trip id="bike254" type="bike_bicycle" depart="611.04" departLane="best" from="13987463#19" to="-587535347"/>
    <trip id="bike255" type="bike_bicycle" depart="613.45" departLane="best" departSpeed="max" from="-460117247" to="-49326681#3"/>
    <trip id="bike262" type="bike_bicycle" depart="630.29" departLane="best" departSpeed="max" from="427818592" to="4709230#4"/>
    <trip id="bike263" type="bike_bicycle" depart="632.69" departLane="best" from="-592369192" to="-466067438#1"/>
    <trip id="bike264" type="bike_bicycle" depart="635.10" departLane="best" departSpeed="max" from="-1331842466" to="49326681#1"/>
    <trip id="bike265" type="bike_bicycle" depart="637.50" departLane="best" from="-246446006#1" to="460084098"/>
    <trip id="bike267" type="bike_bicycle" depart="642.31" departLane="best" departSpeed="max" from="460117238#0" to="4750829#5"/>
    <trip id="bike268" type="bike_bicycle" depart="644.72" departLane="best" from="-428067054#7" to="390519490#1"/>
    <trip id="bike270" type="bike_bicycle" depart="649.53" departLane="best" from="-48526068#12" to="698692737"/>
    <trip id="bike272" type="bike_bicycle" depart="654.34" departLane="best" departSpeed="max" from="-4750867" to="460117242#0"/>
    <trip id="bike278" type="bike_bicycle" depart="668.78" departLane="best" departSpeed="max" from="-20551338#2" to="-773641184#9"/>
    <trip id="bike280" type="bike_bicycle" depart="673.59" departLane="best" departSpeed="max" from="-588738405" to="-580540658#0"/>
    <trip id="bike282" type="bike_bicycle" depart="678.40" departLane="best" departSpeed="max" from="49326672#0" to="-49326656#0"/>
    <trip id="bike284" type="bike_bicycle" depart="683.21" departLane="best" from="390204457#3" to="49326660#1"/>
    <trip id="bike285" type="bike_bicycle" depart="685.62" departLane="best" from="460117249#0" to="-699932342#1"/>
    <trip id="bike286" type="bike_bicycle" depart="688.02" departLane="best" departSpeed="max" from="466067459#0" to="699916870#2"/>
    <trip id="bike293" type="bike_bicycle" depart="704.86" departLane="best" departSpeed="max" from="-592150924" to="390581212"/>
    <trip id="bike294" type="bike_bicycle" depart="707.27" departLane="best" from="-525162459#0" to="13986780#0"/>
    <trip id="bike295" type="bike_bicycle" depart="709.67" departLane="best" from="49326677" to="-460588679"/>
    <trip id="bike296" type="bike_bicycle" depart="712.08" departLane="best" from="460117248#1" to="48525989#0"/>
    <trip id="bike298" type="bike_bicycle" depart="716.89" departLane="best" from="-460117241#0" to="-4750861#5"/>
    <trip id="bike299" type="bike_bicycle" depart="719.30" departLane="best" from="-1216157054" to="592369196"/>
    <trip id="bike302" type="bike_bicycle" depart="726.51" departLane="best" from="435512534#2" to="435134259"/>
    <trip id="bike303" type="bike_bicycle" depart="728.92" departLane="best" from="699916870#2" to="-48525943#0"/>
    <trip id="bike304" type="bike_bicycle" depart="731.32" departLane="best" from="-20548882#1" to="4709186#8"/>
    <trip id="bike305" type="bike_bicycle" depart="733.73" departLane="best" departSpeed="max" from="435512545" to="49326653#5"/>
    <trip id="bike306" type="bike_bicycle" depart="736.13" departLane="best" from="20546957#5" to="1190731207#0"/>
    <trip id="bike307" type="bike_bicycle" depart="738.54" departLane="best" departSpeed="max" from="1190768693" to="-592377347"/>
    <trip id="bike309" type="bike_bicycle" depart="743.35" departLane="best" from="460117243#2" to="-4750852#0"/>
    <trip id="bike311" type="bike_bicycle" depart="748.16" departLane="best" from="-435512524#1" to="-390597024"/>
    <trip id="bike314" type="bike_bicycle" depart="755.38" departLane="best" from="-60659681#2" to="4709187#4"/>
    <trip id="bike315" type="bike_bicycle" depart="757.79" departLane="best" from="770918055#1" to="13987473#0"/>
    <trip id="bike318" type="bike_bicycle" depart="765.00" departLane="best" departSpeed="max" from="-435134262#1" to="-13984262#8"/>
    <trip id="bike324" type="bike_bicycle" depart="779.44" departLane="best" from="-592365299#0" to="757646628#1"/>
    <trip id="bike326" type="bike_bicycle" depart="784.25" departLane="best" from="-592137666#0" to="1191694846"/>
    <trip id="bike328" type="bike_bicycle" depart="789.06" departLane="best" from="-20547020#1" to="428066248#2"/>
    <trip id="bike329" type="bike_bicycle" depart="791.47" departLane="best" from="-13987465#5" to="-435135725#0"/>
    <trip id="bike330" type="bike_bicycle" depart="793.87" departLane="best" from="-13987463#17" to="-49326651"/>
    <trip id="bike334" type="bike_bicycle" depart="803.49" departLane="best" departSpeed="max" from="-991157799" to="-773641184#11"/>
    <trip id="bike335" type="bike_bicycle" depart="805.90" departLane="best" from="-590772367#1" to="-545672169"/>
    <trip id="bike339" type="bike_bicycle" depart="815.52" departLane="best" from="-460117243#2" to="4693412#6"/>
    <trip id="bike340" type="bike_bicycle" depart="817.93" departLane="best" from="428067046#2" to="-435496780#0"/>
    <trip id="bike342" type="bike_bicycle" depart="822.74" departLane="best" from="-1067494730#3" to="-773641184#11"/>
    <trip id="bike344" type="bike_bicycle" depart="827.55" departLane="best" from="-466067435#0" to="466067446#0"/>
    <trip id="bike346" type="bike_bicycle" depart="832.36" departLane="best" from="435512527#4" to="590969507#0"/>
    <trip id="bike348" type="bike_bicycle" depart="837.17" departLane="best" from="428067049#0" to="592104300"/>
    <trip id="bike349" type="bike_bicycle" depart="839.58" departLane="best" departSpeed="max" from="-588685690" to="20547027#0"/>
    <trip id="bike350" type="bike_bicycle" depart="841.98" departLane="best" from="402130573" to="-590456072#1"/>
    <trip id="bike352" type="bike_bicycle" depart="846.80" departLane="best" from="-428067053#0" to="-49326655#1"/>
    <trip id="bike355" type="bike_bicycle" depart="854.01" departLane="best" from="435512530#0" to="-466067427#3"/>
    <trip id="bike356" type="bike_bicycle" depart="856.42" departLane="best" from="592155948#2" to="13985260#2"/>
    <trip id="bike358" type="bike_bicycle" depart="861.23" departLane="best" from="13986777#1" to="-608688060"/>
    <trip id="bike362" type="bike_bicycle" depart="870.85" departLane="best" from="592369197" to="997075506"/>
    <trip id="bike363" type="bike_bicycle" depart="873.26" departLane="best" from="435134252#1" to="-4750848"/>
    <trip id="bike365" type="bike_bicycle" depart="878.07" departLane="best" from="-592365299#4" to="435495852#1"/>
    <trip id="bike366" type="bike_bicycle" depart="880.48" departLane="best" departSpeed="max" from="590456065" to="-460588677#0"/>
    <trip id="bike367" type="bike_bicycle" depart="882.88" departLane="best" from="-20547021#0" to="428067053#1"/>
    <trip id="bike369" type="bike_bicycle" depart="887.69" departLane="best" from="-49326653#9" to="-50599068#2"/>
    <trip id="bike370" type="bike_bicycle" depart="890.10" departLane="best" departSpeed="max" from="435134242" to="-530791147"/>
    <trip id="bike373" type="bike_bicycle" depart="897.31" departLane="best" from="48525947" to="20547038"/>
    <trip id="bike374" type="bike_bicycle" depart="899.72" departLane="best" from="-591858959#0" to="-49326659#1"/>
    <trip id="bike375" type="bike_bicycle" depart="902.13" departLane="best" from="-48525834#9" to="-723815317#3"/>
    <trip id="bike376" type="bike_bicycle" depart="904.53" departLane="best" from="-579234150#0" to="13987463#10"/>
    <trip id="bike377" type="bike_bicycle" depart="906.94" departLane="best" from="-955774157#1" to="435496780#1"/>
    <trip id="bike378" type="bike_bicycle" depart="909.34" departLane="best" from="-13985255#4" to="-592357559#0"/>
    <trip id="bike382" type="bike_bicycle" depart="918.97" departLane="best" from="-13985264#3" to="590983902#2"/>
    <trip id="bike383" type="bike_bicycle" depart="921.37" departLane="best" from="-590526264#1" to="-466067422#5"/>
    <trip id="bike384" type="bike_bicycle" depart="923.78" departLane="best" from="-20551341#1" to="757646627"/>
    <trip id="bike386" type="bike_bicycle" depart="928.59" departLane="best" from="-428046621#3" to="-20548866#10"/>
    <trip id="bike389" type="bike_bicycle" depart="935.81" departLane="best" from="-592116099#1" to="-390581218#1"/>
    <trip id="bike390" type="bike_bicycle" depart="938.21" departLane="best" from="49326652#0" to="13985258#1"/>
    <trip id="bike394" type="bike_bicycle" depart="947.83" departLane="best" from="13985268#0" to="-590209375#1"/>
    <trip id="bike395" type="bike_bicycle" depart="950.24" departLane="best" from="590551428" to="13986801#0"/>
    <trip id="bike396" type="bike_bicycle" depart="952.65" departLane="best" from="545913078#1" to="545913065"/>
    <trip id="bike399" type="bike_bicycle" depart="959.86" departLane="best" from="-773641184#2" to="49326653#9"/>
    <trip id="bike401" type="bike_bicycle" depart="964.67" departLane="best" from="-20547027#0" to="991854951"/>
    <trip id="bike402" type="bike_bicycle" depart="967.08" departLane="best" from="-667258456" to="435135724#1"/>
    <trip id="bike403" type="bike_bicycle" depart="969.48" departLane="best" from="13984262#4" to="-545913060#0"/>
    <trip id="bike404" type="bike_bicycle" depart="971.89" departLane="best" from="13985270" to="20547024"/>
    <trip id="bike405" type="bike_bicycle" depart="974.30" departLane="best" departSpeed="max" from="-591858959#1" to="-49326676#0"/>
    <trip id="bike406" type="bike_bicycle" depart="976.70" departLane="best" departSpeed="max" from="-435496777#1" to="-466067422#2"/>
    <trip id="bike410" type="bike_bicycle" depart="986.32" departLane="best" from="-48525834#8" to="-590456065"/>
    <trip id="bike411" type="bike_bicycle" depart="988.73" departLane="best" from="428067054#5" to="-49326655#0"/>
    <trip id="bike412" type="bike_bicycle" depart="991.14" departLane="best" departSpeed="max" from="773641184#0" to="13985255#0"/>
    <trip id="bike413" type="bike_bicycle" depart="993.54" departLane="best" from="13985265#1" to="13985263#3"/>
    <trip id="bike415" type="bike_bicycle" depart="998.35" departLane="best" departSpeed="max" from="545672170" to="-757646620"/>
    <trip id="bike416" type="bike_bicycle" depart="1000.76" departLane="best" from="1011078576#3" to="-955778450#2"/>
    <trip id="bike417" type="bike_bicycle" depart="1003.16" departLane="best" from="466067422#4" to="592137666#1"/>
    <trip id="bike418" type="bike_bicycle" depart="1005.57" departLane="best" from="-428046608#1" to="-435496774#0"/>
    <trip id="bike419" type="bike_bicycle" depart="1007.98" departLane="best" from="-592365299#0" to="-723811123#2"/>
    <trip id="bike421" type="bike_bicycle" depart="1012.79" departLane="best" from="402177034" to="525162458"/>
    <trip id="bike422" type="bike_bicycle" depart="1015.19" departLane="best" from="49326680#10" to="-532618596#1"/>
    <trip id="bike423" type="bike_bicycle" depart="1017.60" departLane="best" from="-530765260#1" to="-49326662#0"/>
    <trip id="bike424" type="bike_bicycle" depart="1020.00" departLane="best" from="4648552#5" to="-4717313#0"/>
    <trip id="bike425" type="bike_bicycle" depart="1022.41" departLane="best" departSpeed="max" from="532618596#0" to="-13987463#1"/>
    <trip id="bike427" type="bike_bicycle" depart="1027.22" departLane="best" from="590551422" to="991157798"/>
    <trip id="bike430" type="bike_bicycle" depart="1034.44" departLane="best" departSpeed="max" from="532618596#0" to="-757646636#7"/>
    <trip id="bike432" type="bike_bicycle" depart="1039.25" departLane="best" from="13987458#1" to="48525951#1"/>
    <trip id="bike433" type="bike_bicycle" depart="1041.65" departLane="best" from="-4717454#0" to="-580563883"/>
    <trip id="bike434" type="bike_bicycle" depart="1044.06" departLane="best" departSpeed="max" from="-390597012" to="13987833#0"/>
    <trip id="bike435" type="bike_bicycle" depart="1046.47" departLane="best" from="13987465#2" to="48525834#9"/>
    <trip id="bike437" type="bike_bicycle" depart="1051.28" departLane="best" from="530791143#0" to="422104862#0"/>
    <trip id="bike438" type="bike_bicycle" depart="1053.68" departLane="best" from="4693394#1" to="590526266#0"/>
    <trip id="bike440" type="bike_bicycle" depart="1058.49" departLane="best" from="-4709186#7" to="4717315#1"/>
    <trip id="bike441" type="bike_bicycle" depart="1060.90" departLane="best" departSpeed="max" from="-1190768692" to="48526679#0"/>
    <trip id="bike444" type="bike_bicycle" depart="1068.12" departLane="best" from="-49326652#2" to="-20551338#1"/>
    <trip id="bike445" type="bike_bicycle" depart="1070.52" departLane="best" from="390519490#2" to="592377343"/>
    <trip id="bike448" type="bike_bicycle" depart="1077.74" departLane="best" from="-60659680#7" to="4709215#0"/>
    <trip id="bike451" type="bike_bicycle" depart="1084.96" departLane="best" from="770918059" to="-435512521#0"/>
    <trip id="bike454" type="bike_bicycle" depart="1092.17" departLane="best" from="-13987463#14" to="390204462#1"/>
    <trip id="bike455" type="bike_bicycle" depart="1094.58" departLane="best" from="-723815318#2" to="590232062"/>
    <trip id="bike460" type="bike_bicycle" depart="1106.61" departLane="best" from="428066259#2" to="-49326680#3"/>
    <trip id="bike461" type="bike_bicycle" depart="1109.01" departLane="best" from="246446006#1" to="-590209373#1"/>
    <trip id="bike462" type="bike_bicycle" depart="1111.42" departLane="best" from="401753885#2" to="-49326656#0"/>
    <trip id="bike465" type="bike_bicycle" depart="1118.64" departLane="best" departSpeed="max" from="-4740622" to="4709225#6"/>