<?xml version="1.0" encoding="UTF-8"?>

<!-- generated on 2025-03-15 18:31:15.045366 by osmWebWizard.py v1_22_0+0002-63e50f52594
<configuration>
    <net-file value="C:\Users\user\Sumo\2025-03-15-18-30-05\osm.net.xml.gz"/>
    <output-trip-file value="C:\Users\user\Sumo\2025-03-15-18-30-05\osm.pedestrian.trips.xml"/>
    <route-file value="C:\Users\user\Sumo\2025-03-15-18-30-05\osm.pedestrian.rou.xml"/>
    <pedestrians value="True"/>
    <prefix value="ped"/>
    <vehicle-class value="pedestrian"/>
    <fringe-factor value="25"/>
    <max-distance value="2000.0"/>
    <insertion-density value="10.0"/>
</configuration>
-->

<routes xmlns:xsi="http://www.w3.org/2001/XMLSchema-instance" xsi:noNamespaceSchemaLocation="http://sumo.dlr.de/xsd/routes_file.xsd">
    <vType id="ped_pedestrian" vClass="pedestrian"/>
    <person id="ped0" depart="0.00" type="ped_pedestrian">
        <walk from="532618599#1" to="-460084103#0"/>
    </person>
    <person id="ped1" depart="7.90" type="ped_pedestrian">
        <walk from="545913099#2" to="545913097#1"/>
    </person>
    <person id="ped2" depart="15.80" type="ped_pedestrian">
        <walk from="546218405#1" to="-530765262#0"/>
    </person>
    <person id="ped3" depart="23.70" type="ped_pedestrian">
        <walk from="466067428#0" to="-460084103#0"/>
    </person>
    <person id="ped4" depart="31.59" type="ped_pedestrian">
        <walk from="-545913087" to="530781078#1"/>
    </person>
    <person id="ped5" depart="39.49" type="ped_pedestrian">
        <walk from="532618600#0" to="532618597#1"/>
    </person>
    <person id="ped6" depart="47.39" type="ped_pedestrian">
        <walk from="-545913087" to="532618600#1"/>
    </person>
    <person id="ped7" depart="55.29" type="ped_pedestrian">
        <walk from="546213405#0" to="545913104"/>
    </person>
    <person id="ped8" depart="63.19" type="ped_pedestrian">
        <walk from="1220178761" to="-557684193"/>
    </person>
    <person id="ped9" depart="71.09" type="ped_pedestrian">
        <walk from="552116453" to="466067428#1"/>
    </person>
    <person id="ped10" depart="78.98" type="ped_pedestrian">
        <walk from="-466067459#1" to="-530781077#0"/>
    </person>
    <person id="ped11" depart="86.88" type="ped_pedestrian">
        <walk from="546218393#0" to="545672704"/>
    </person>
    <person id="ped12" depart="94.78" type="ped_pedestrian">
        <walk from="546213405#0" to="546213396#2"/>
    </person>
    <person id="ped13" depart="102.68" type="ped_pedestrian">
        <walk from="530778853#0" to="590829848"/>
    </person>
    <person id="ped14" depart="110.58" type="ped_pedestrian">
        <walk from="466067421#2" to="532618598#0"/>
    </person>
    <person id="ped15" depart="118.48" type="ped_pedestrian">
        <walk from="546218388" to="545913060#1"/>
    </person>
    <person id="ped16" depart="126.37" type="ped_pedestrian">
        <walk from="546218395#1" to="532618599#2"/>
    </person>
    <person id="ped17" depart="134.27" type="ped_pedestrian">
        <walk from="545913096#1" to="-466067459#0"/>
    </person>
    <person id="ped18" depart="142.17" type="ped_pedestrian">
        <walk from="-545913104" to="466067421#1"/>
    </person>
    <person id="ped19" depart="150.07" type="ped_pedestrian">
        <walk from="-48525667#4" to="460084103#1"/>
    </person>
    <person id="ped20" depart="157.97" type="ped_pedestrian">
        <walk from="532618599#1" to="466067430#0"/>
    </person>
    <person id="ped21" depart="165.87" type="ped_pedestrian">
        <walk from="466067421#0" to="1190731213"/>
    </person>
    <person id="ped22" depart="173.76" type="ped_pedestrian">
        <walk from="-557684193" to="562503479"/>
    </person>
    <person id="ped23" depart="181.66" type="ped_pedestrian">
        <walk from="532618600#0" to="545673182"/>
    </person>
    <person id="ped24" depart="189.56" type="ped_pedestrian">
        <walk from="-530791148" to="546213396#2"/>
    </person>
    <person id="ped25" depart="197.46" type="ped_pedestrian">
        <walk from="-530781077#1" to="466067448#0"/>
    </person>
    <person id="ped26" depart="205.36" type="ped_pedestrian">
        <walk from="590556999#0" to="545913094"/>
    </person>
    <person id="ped27" depart="213.26" type="ped_pedestrian">
        <walk from="530781078#0" to="545913098"/>
    </person>
    <person id="ped28" depart="221.15" type="ped_pedestrian">
        <walk from="546218390#1" to="546213403"/>
    </person>
    <person id="ped29" depart="229.05" type="ped_pedestrian">
        <walk from="-545913104" to="-460775413"/>
    </person>
    <person id="ped30" depart="236.95" type="ped_pedestrian">
        <walk from="-545913074" to="590439255#2"/>
    </person>
    <person id="ped31" depart="244.85" type="ped_pedestrian">
        <walk from="546218403#1" to="466067426#0"/>
    </person>
    <person id="ped32" depart="252.75" type="ped_pedestrian">
        <walk from="532618600#1" to="48525667#5"/>
    </person>
    <person id="ped33" depart="260.65" type="ped_pedestrian">
        <walk from="546219613" to="530765262#2"/>
    </person>
    <person id="ped34" depart="268.54" type="ped_pedestrian">
        <walk from="-557684193" to="1220178760"/>
    </person>
    <person id="ped35" depart="276.44" type="ped_pedestrian">
        <walk from="530781078#0" to="1270364161#1"/>
    </person>
    <person id="ped36" depart="284.34" type="ped_pedestrian">
        <walk from="530783213" to="546219615"/>
    </person>
    <person id="ped37" depart="292.24" type="ped_pedestrian">
        <walk from="-466067440#1" to="-466067459#0"/>
    </person>
    <person id="ped38" depart="300.14" type="ped_pedestrian">
        <walk from="-48525834#12" to="545913071"/>
    </person>
    <person id="ped39" depart="308.04" type="ped_pedestrian">
        <walk from="546213402" to="48525951#5"/>
    </person>
    <person id="ped40" depart="315.93" type="ped_pedestrian">
        <walk from="590772372" to="530791148"/>
    </person>
    <person id="ped41" depart="323.83" type="ped_pedestrian">
        <walk from="557684193" to="546218405#0"/>
    </person>
    <person id="ped42" depart="331.73" type="ped_pedestrian">
        <walk from="-1190731207#1" to="546213396#1"/>
    </person>
    <person id="ped43" depart="339.63" type="ped_pedestrian">
        <walk from="545913064" to="532618597#0"/>
    </person>
    <person id="ped44" depart="347.53" type="ped_pedestrian">
        <walk from="-557684193" to="545913094"/>
    </person>
    <person id="ped45" depart="355.43" type="ped_pedestrian">
        <walk from="-48525834#19" to="48526680"/>
    </person>
    <person id="ped46" depart="363.32" type="ped_pedestrian">
        <walk from="466067429#1" to="590551423"/>
    </person>
    <person id="ped47" depart="371.22" type="ped_pedestrian">
        <walk from="546218403#1" to="1270364161#1"/>
    </person>
    <person id="ped48" depart="379.12" type="ped_pedestrian">
        <walk from="48525946#3" to="-590556999#0"/>
    </person>
    <person id="ped49" depart="387.02" type="ped_pedestrian">
        <walk from="546219613" to="546218405#1"/>
    </person>
    <person id="ped50" depart="394.92" type="ped_pedestrian">
        <walk from="-590829847" to="545913094"/>
    </person>
    <person id="ped51" depart="402.82" type="ped_pedestrian">
        <walk from="532618597#0" to="-557684193"/>
    </person>
    <person id="ped52" depart="410.72" type="ped_pedestrian">
        <walk from="546213397#0" to="532618597#0"/>
    </person>
    <person id="ped53" depart="418.61" type="ped_pedestrian">
        <walk from="546213399#1" to="530791148"/>
    </person>
    <person id="ped54" depart="426.51" type="ped_pedestrian">
        <walk from="-1190731206" to="466067426#1"/>
    </person>
    <person id="ped55" depart="434.41" type="ped_pedestrian">
        <walk from="-1190731209" to="557684003#0"/>
    </person>
    <person id="ped56" depart="442.31" type="ped_pedestrian">
        <walk from="546218403#2" to="546218393#1"/>
    </person>
    <person id="ped57" depart="450.21" type="ped_pedestrian">
        <walk from="-590829848" to="-48525667#0"/>
    </person>
    <person id="ped58" depart="458.11" type="ped_pedestrian">
        <walk from="546218403#2" to="590439256#1"/>
    </person>
    <person id="ped59" depart="466.00" type="ped_pedestrian">
        <walk from="-460084103#3" to="530778853#2"/>
    </person>
    <person id="ped60" depart="473.90" type="ped_pedestrian">
        <walk from="546213397#1" to="-545913078#0"/>
    </person>
    <person id="ped61" depart="481.80" type="ped_pedestrian">
        <walk from="466067449" to="532618598#0"/>
    </person>
    <person id="ped62" depart="489.70" type="ped_pedestrian">
        <walk from="-557684193" to="546219609#0"/>
    </person>
    <person id="ped63" depart="497.60" type="ped_pedestrian">
        <walk from="466067428#0" to="1190731213"/>
    </person>
    <person id="ped64" depart="505.50" type="ped_pedestrian">
        <walk from="530778853#1" to="546213396#2"/>
    </person>
    <person id="ped65" depart="513.39" type="ped_pedestrian">
        <walk from="-545913071" to="466067423"/>
    </person>
    <person id="ped66" depart="521.29" type="ped_pedestrian">
        <walk from="590556999#0" to="545913096#0"/>
    </person>
    <person id="ped67" depart="529.19" type="ped_pedestrian">
        <walk from="466067428#3" to="530782140"/>
    </person>
    <person id="ped68" depart="537.09" type="ped_pedestrian">
        <walk from="-545913104" to="546219616#0"/>
    </person>
    <person id="ped69" depart="544.99" type="ped_pedestrian">
        <walk from="546218395#1" to="-48525989#2"/>
    </person>
    <person id="ped70" depart="552.89" type="ped_pedestrian">
        <walk from="-545913105#1" to="545913097#0"/>
    </person>
    <person id="ped71" depart="560.78" type="ped_pedestrian">
        <walk from="-545913087" to="-547212110"/>
    </person>
    <person id="ped72" depart="568.68" type="ped_pedestrian">
        <walk from="546219616#1" to="532618599#1"/>
    </person>
    <person id="ped73" depart="576.58" type="ped_pedestrian">
        <walk from="466067449" to="546213405#1"/>
    </person>
    <person id="ped74" depart="584.48" type="ped_pedestrian">
        <walk from="546213405#0" to="1190731206"/>
    </person>
    <person id="ped75" depart="592.38" type="ped_pedestrian">
        <walk from="-466067461" to="48526679#3"/>
    </person>
    <person id="ped76" depart="600.28" type="ped_pedestrian">
        <walk from="466067428#0" to="530765264#2"/>
    </person>
    <person id="ped77" depart="608.17" type="ped_pedestrian">
        <walk from="545913097#1" to="545913097#0"/>
    </person>
    <person id="ped78" depart="616.07" type="ped_pedestrian">
        <walk from="466067423" to="466067428#2"/>
    </person>
    <person id="ped79" depart="623.97" type="ped_pedestrian">
        <walk from="-545672704" to="525162459#3"/>
    </person>
    <person id="ped80" depart="631.87" type="ped_pedestrian">
        <walk from="466067428#0" to="460084103#3"/>
    </person>
    <person id="ped81" depart="639.77" type="ped_pedestrian">
        <walk from="-547212110" to="547214713"/>
    </person>
    <person id="ped82" depart="647.67" type="ped_pedestrian">
        <walk from="466067429#0" to="546218405#0"/>
    </person>
    <person id="ped83" depart="655.56" type="ped_pedestrian">
        <walk from="530781077#0" to="-466067460"/>
    </person>
    <person id="ped84" depart="663.46" type="ped_pedestrian">
        <walk from="702413184#1" to="546218395#1"/>
    </person>
    <person id="ped85" depart="671.36" type="ped_pedestrian">
        <walk from="557684193" to="547214713"/>
    </person>
    <person id="ped86" depart="679.26" type="ped_pedestrian">
        <walk from="546218393#0" to="-590439255#0"/>
    </person>
    <person id="ped87" depart="687.16" type="ped_pedestrian">
        <walk from="466067423" to="-48525667#4"/>
    </person>
    <person id="ped88" depart="695.06" type="ped_pedestrian">
        <walk from="-557684193" to="546213405#1"/>
    </person>
    <person id="ped89" depart="702.95" type="ped_pedestrian">
        <walk from="466067429#1" to="48525951#5"/>
    </person>
    <person id="ped90" depart="710.85" type="ped_pedestrian">
        <walk from="530781077#0" to="546213396#0"/>
    </person>
    <person id="ped91" depart="718.75" type="ped_pedestrian">
        <walk from="-530765264#0" to="466067421#2"/>
    </person>
    <person id="ped92" depart="726.65" type="ped_pedestrian">
        <walk from="557684193" to="532618599#2"/>
    </person>
    <person id="ped93" depart="734.55" type="ped_pedestrian">
        <walk from="530778853#1" to="546213399#0"/>
    </person>
    <person id="ped94" depart="742.45" type="ped_pedestrian">
        <walk from="48525951#0" to="546218403#1"/>
    </person>
    <person id="ped95" depart="750.34" type="ped_pedestrian">
        <walk from="-530765264#2" to="590556998"/>
    </person>
    <person id="ped96" depart="758.24" type="ped_pedestrian">
        <walk from="530791147" to="545913097#1"/>
    </person>
    <person id="ped97" depart="766.14" type="ped_pedestrian">
        <walk from="-545913105#1" to="-545913060#0"/>
    </person>
    <person id="ped98" depart="774.04" type="ped_pedestrian">
        <walk from="530791143#0" to="545913060#1"/>
    </person>
    <person id="ped99" depart="781.94" type="ped_pedestrian">
        <walk from="466067428#0" to="532618600#0"/>
    </person>
    <person id="ped100" depart="789.84" type="ped_pedestrian">
        <walk from="530765262#2" to="557684193"/>
    </person>
    <person id="ped101" depart="797.73" type="ped_pedestrian">
        <walk from="-545913071" to="546213396#0"/>
    </person>
    <person id="ped102" depart="805.63" type="ped_pedestrian">
        <walk from="-545913105#1" to="48525667#5"/>
    </person>
    <person id="ped103" depart="813.53" type="ped_pedestrian">
        <walk from="545672170" to="466067421#3"/>
    </person>
    <person id="ped104" depart="821.43" type="ped_pedestrian">
        <walk from="-1270364161#1" to="530765262#2"/>
    </person>
    <person id="ped105" depart="829.33" type="ped_pedestrian">
        <walk from="608890999#1" to="699932343"/>
    </person>
    <person id="ped106" depart="837.23" type="ped_pedestrian">
        <walk from="-557684193" to="557684193"/>
    </person>
    <person id="ped107" depart="845.13" type="ped_pedestrian">
        <walk from="546218403#2" to="546219609#1"/>
    </person>
    <person id="ped108" depart="853.02" type="ped_pedestrian">
        <walk from="466067421#0" to="-557684193"/>
    </person>
    <person id="ped109" depart="860.92" type="ped_pedestrian">
        <walk from="546218390#0" to="545913105#1"/>
    </person>
    <person id="ped110" depart="868.82" type="ped_pedestrian">
        <walk from="532618597#1" to="608890999#1"/>
    </person>
    <person id="ped111" depart="876.72" type="ped_pedestrian">
        <walk from="546213406" to="466067421#3"/>
    </person>
    <person id="ped112" depart="884.62" type="ped_pedestrian">
        <walk from="545672167#0" to="590439255#2"/>
    </person>
    <person id="ped113" depart="892.52" type="ped_pedestrian">
        <walk from="-525162455" to="-545672167#0"/>
    </person>
    <person id="ped114" depart="900.41" type="ped_pedestrian">
        <walk from="-48525667#5" to="532618598#0"/>
    </person>
    <person id="ped115" depart="908.31" type="ped_pedestrian">
        <walk from="-590439255#2" to="545672704"/>
    </person>
    <person id="ped116" depart="916.21" type="ped_pedestrian">
        <walk from="545913097#0" to="1190731208"/>
    </person>
    <person id="ped117" depart="924.11" type="ped_pedestrian">
        <walk from="532618599#0" to="1290292256"/>
    </person>
    <person id="ped118" depart="932.01" type="ped_pedestrian">
        <walk from="466067461" to="546219616#0"/>
    </person>
    <person id="ped119" depart="939.91" type="ped_pedestrian">
        <walk from="546218393#0" to="-530765264#0"/>
    </person>
    <person id="ped120" depart="947.80" type="ped_pedestrian">
        <walk from="466067428#0" to="460084099"/>
    </person>
    <person id="ped121" depart="955.70" type="ped_pedestrian">
        <walk from="-1190731206" to="546213403"/>
    </person>
    <person id="ped122" depart="963.60" type="ped_pedestrian">
        <walk from="532618599#1" to="1270364161#1"/>
    </person>
    <person id="ped123" depart="971.50" type="ped_pedestrian">
        <walk from="546213396#0" to="532618598#0"/>
    </person>
    <person id="ped124" depart="979.40" type="ped_pedestrian">
        <walk from="-1270364161#1" to="546219609#1"/>
    </person>
    <person id="ped125" depart="987.30" type="ped_pedestrian">
        <walk from="546219609#1" to="532618597#1"/>
    </person>
    <person id="ped126" depart="995.19" type="ped_pedestrian">
        <walk from="546218390#0" to="532618600#0"/>
    </person>
    <person id="ped127" depart="1003.09" type="ped_pedestrian">
        <walk from="-530765262#0" to="-545913071"/>
    </person>
    <person id="ped128" depart="1010.99" type="ped_pedestrian">
        <walk from="-590829848" to="546219615"/>
    </person>
    <person id="ped129" depart="1018.89" type="ped_pedestrian">
        <walk from="546213403" to="546218405#0"/>
    </person>
    <person id="ped130" depart="1026.79" type="ped_pedestrian">
        <walk from="546219609#0" to="1190731213"/>
    </person>
    <person id="ped131" depart="1034.69" type="ped_pedestrian">
        <walk from="-547212110" to="-530791148"/>
    </person>
    <person id="ped132" depart="1042.58" type="ped_pedestrian">
        <walk from="546213399#1" to="546219609#1"/>
    </person>
    <person id="ped133" depart="1050.48" type="ped_pedestrian">
        <walk from="466067426#0" to="545913063#0"/>
    </person>
    <person id="ped134" depart="1058.38" type="ped_pedestrian">
        <walk from="-530765262#2" to="557684193"/>
    </person>
    <person id="ped135" depart="1066.28" type="ped_pedestrian">
        <walk from="546218398" to="590829848"/>
    </person>
    <person id="ped136" depart="1074.18" type="ped_pedestrian">
        <walk from="546213405#1" to="546219609#1"/>
    </person>
    <person id="ped137" depart="1082.08" type="ped_pedestrian">
        <walk from="-1190731213" to="546213397#0"/>
    </person>
    <person id="ped138" depart="1089.97" type="ped_pedestrian">
        <walk from="1190731208" to="557684193"/>
    </person>
    <person id="ped139" depart="1097.87" type="ped_pedestrian">
        <walk from="546213405#0" to="546218405#0"/>
    </person>
    <person id="ped140" depart="1105.77" type="ped_pedestrian">
        <walk from="546213405#1" to="1290292256"/>
    </person>
    <person id="ped141" depart="1113.67" type="ped_pedestrian">
        <walk from="546213400" to="-532618596#0"/>
    </person>
    <person id="ped142" depart="1121.57" type="ped_pedestrian">
        <walk from="546218403#1" to="546218403#2"/>
    </person>
    <person id="ped143" depart="1129.47" type="ped_pedestrian">
        <walk from="-545913099#2" to="546218390#1"/>
    </person>
    <person id="ped144" depart="1137.36" type="ped_pedestrian">
        <walk from="466067430#0" to="466067422#1"/>
    </person>
    <person id="ped145" depart="1145.26" type="ped_pedestrian">
        <walk from="-1190731213" to="1190731207#1"/>
    </person>
    <person id="ped146" depart="1153.16" type="ped_pedestrian">
        <walk from="-699932343" to="546218405#0"/>
    </person>
    <person id="ped147" depart="1161.06" type="ped_pedestrian">
        <walk from="557684193" to="460084105"/>
    </person>
    <person id="ped148" depart="1168.96" type="ped_pedestrian">
        <walk from="532618599#2" to="48525667#5"/>
    </person>
    <person id="ped149" depart="1176.86" type="ped_pedestrian">
        <walk from="590439255#0" to="532618596#2"/>
    </person>
    <person id="ped150" depart="1184.75" type="ped_pedestrian">
        <walk from="546219616#1" to="-545672167#0"/>
    </person>
    <person id="ped151" depart="1192.65" type="ped_pedestrian">
        <walk from="557684193" to="-590556999#0"/>
    </person>
    <person id="ped152" depart="1200.55" type="ped_pedestrian">
        <walk from="557684003#0" to="1290292256"/>
    </person>
    <person id="ped153" depart="1208.45" type="ped_pedestrian">
        <walk from="-48525727" to="48526680"/>
    </person>
    <person id="ped154" depart="1216.35" type="ped_pedestrian">
        <walk from="545913097#1" to="466067426#0"/>
    </person>
    <person id="ped155" depart="1224.25" type="ped_pedestrian">
        <walk from="532618597#0" to="530781078#2"/>
    </person>
    <person id="ped156" depart="1232.15" type="ped_pedestrian">
        <walk from="466067421#3" to="532618599#2"/>
    </person>
    <person id="ped157" depart="1240.04" type="ped_pedestrian">
        <walk from="-547214713" to="545913108#2"/>
    </person>
    <person id="ped158" depart="1247.94" type="ped_pedestrian">
        <walk from="-1190731206" to="547214713"/>
    </person>
    <person id="ped159" depart="1255.84" type="ped_pedestrian">
        <walk from="530778853#1" to="546213396#0"/>
    </person>
    <person id="ped160" depart="1263.74" type="ped_pedestrian">
        <walk from="546213396#0" to="545913097#0"/>
    </person>
    <person id="ped161" depart="1271.64" type="ped_pedestrian">
        <walk from="460775413" to="-48525988"/>
    </person>
    <person id="ped162" depart="1279.54" type="ped_pedestrian">
        <walk from="545672167#0" to="466067428#0"/>
    </person>
    <person id="ped163" depart="1287.43" type="ped_pedestrian">
        <walk from="-608890997" to="546218403#1"/>
    </person>
    <person id="ped164" depart="1295.33" type="ped_pedestrian">
        <walk from="545913097#0" to="466067421#3"/>
    </person>
    <person id="ped165" depart="1303.23" type="ped_pedestrian">
        <walk from="-590829848" to="48525834#19"/>
    </person>
    <person id="ped166" depart="1311.13" type="ped_pedestrian">
        <walk from="466067423" to="466067421#2"/>
    </person>
    <person id="ped167" depart="1319.03" type="ped_pedestrian">
        <walk from="-48525951#5" to="48525951#5"/>
    </person>
    <person id="ped168" depart="1326.93" type="ped_pedestrian">
        <walk from="546219618" to="545913097#1"/>
    </person>
    <person id="ped169" depart="1334.82" type="ped_pedestrian">
        <walk from="546219609#1" to="545913060#1"/>
    </person>
    <person id="ped170" depart="1342.72" type="ped_pedestrian">
        <walk from="-590829847" to="532618597#1"/>
    </person>
    <person id="ped171" depart="1350.62" type="ped_pedestrian">
        <walk from="-1190731206" to="466067421#1"/>
    </person>
    <person id="ped172" depart="1358.52" type="ped_pedestrian">
        <walk from="466067428#1" to="532618599#2"/>
    </person>
    <person id="ped173" depart="1366.42" type="ped_pedestrian">
        <walk from="532618600#1" to="530765264#2"/>
    </person>
    <person id="ped174" depart="1374.32" type="ped_pedestrian">
        <walk from="466067449" to="546219615"/>
    </person>
    <person id="ped175" depart="1382.21" type="ped_pedestrian">
        <walk from="546213403" to="-590439255#0"/>
    </person>
    <person id="ped176" depart="1390.11" type="ped_pedestrian">
        <walk from="-460084103#0" to="530782140"/>
    </person>
    <person id="ped177" depart="1398.01" type="ped_pedestrian">
        <walk from="532618599#0" to="466067428#1"/>
    </person>
    <person id="ped178" depart="1405.91" type="ped_pedestrian">
        <walk from="546213406" to="546213399#0"/>
    </person>
    <person id="ped179" depart="1413.81" type="ped_pedestrian">
        <walk from="-545913066#2" to="-460084103#0"/>
    </person>
    <person id="ped180" depart="1421.71" type="ped_pedestrian">
        <walk from="-545913108#2" to="530778853#0"/>
    </person>
    <person id="ped181" depart="1429.60" type="ped_pedestrian">
        <walk from="546218393#0" to="-525162453#1"/>
    </person>
    <person id="ped182" depart="1437.50" type="ped_pedestrian">
        <walk from="466067426#1" to="545913073"/>
    </person>
    <person id="ped183" depart="1445.40" type="ped_pedestrian">
        <walk from="-545673182" to="545913104"/>
    </person>
    <person id="ped184" depart="1453.30" type="ped_pedestrian">
        <walk from="546213396#2" to="546213402"/>
    </person>
    <person id="ped185" depart="1461.20" type="ped_pedestrian">
        <walk from="-48525667#5" to="48525951#5"/>
    </person>
    <person id="ped186" depart="1469.10" type="ped_pedestrian">
        <walk from="-530791151#1" to="590551426#1"/>
    </person>
    <person id="ped187" depart="1476.99" type="ped_pedestrian">
        <walk from="530765262#0" to="-466067459#1"/>
    </person>
    <person id="ped188" depart="1484.89" type="ped_pedestrian">
        <walk from="-547212110" to="546218403#1"/>
    </person>
    <person id="ped189" depart="1492.79" type="ped_pedestrian">
        <walk from="466067430#0" to="546213407"/>
    </person>
    <person id="ped190" depart="1500.69" type="ped_pedestrian">
        <walk from="530791148" to="590439256#1"/>
    </person>
    <person id="ped191" depart="1508.59" type="ped_pedestrian">
        <walk from="546218405#1" to="545673182"/>
    </person>
    <person id="ped192" depart="1516.49" type="ped_pedestrian">
        <walk from="545913097#0" to="530781078#1"/>
    </person>
    <person id="ped193" depart="1524.38" type="ped_pedestrian">
        <walk from="546218388" to="532618597#1"/>
    </person>
    <person id="ped194" depart="1532.28" type="ped_pedestrian">
        <walk from="546219609#0" to="546213397#1"/>
    </person>
    <person id="ped195" depart="1540.18" type="ped_pedestrian">
        <walk from="466067449" to="1270364161#1"/>
    </person>
    <person id="ped196" depart="1548.08" type="ped_pedestrian">
        <walk from="-545913108#2" to="545913094"/>
    </person>
    <person id="ped197" depart="1555.98" type="ped_pedestrian">
        <walk from="546213397#1" to="530782140"/>
    </person>
    <person id="ped198" depart="1563.88" type="ped_pedestrian">
        <walk from="532618598#1" to="344892996"/>
    </person>
    <person id="ped199" depart="1571.77" type="ped_pedestrian">
        <walk from="-1270364161#1" to="466067421#0"/>
    </person>
    <person id="ped200" depart="1579.67" type="ped_pedestrian">
        <walk from="-590439255#2" to="466067426#1"/>
    </person>
    <person id="ped201" depart="1587.57" type="ped_pedestrian">
        <walk from="530778853#1" to="-547214713"/>
    </person>
    <person id="ped202" depart="1595.47" type="ped_pedestrian">
        <walk from="-545913104" to="545913099#2"/>
    </person>
    <person id="ped203" depart="1603.37" type="ped_pedestrian">
        <walk from="545913096#1" to="-48525834#6"/>
    </person>
    <person id="ped204" depart="1611.27" type="ped_pedestrian">
        <walk from="466067426#0" to="532618597#0"/>
    </person>
    <person id="ped205" depart="1619.16" type="ped_pedestrian">
        <walk from="466067426#1" to="1190731213"/>
    </person>
    <person id="ped206" depart="1627.06" type="ped_pedestrian">
        <walk from="466067428#0" to="546219616#0"/>
    </person>
    <person id="ped207" depart="1634.96" type="ped_pedestrian">
        <walk from="530783213" to="545913104"/>
    </person>
    <person id="ped208" depart="1642.86" type="ped_pedestrian">
        <walk from="546218393#1" to="546213402"/>
    </person>
    <person id="ped209" depart="1650.76" type="ped_pedestrian">
        <walk from="546218393#1" to="590551423"/>
    </person>
    <person id="ped210" depart="1658.66" type="ped_pedestrian">
        <walk from="466067428#0" to="546213399#0"/>
    </person>
    <person id="ped211" depart="1666.56" type="ped_pedestrian">
        <walk from="530778853#2" to="545672704"/>
    </person>
    <person id="ped212" depart="1674.45" type="ped_pedestrian">
        <walk from="466067428#2" to="-460084103#0"/>
    </person>
    <person id="ped213" depart="1682.35" type="ped_pedestrian">
        <walk from="466067426#0" to="-562503480"/>
    </person>
    <person id="ped214" depart="1690.25" type="ped_pedestrian">
        <walk from="466067430#1" to="-545913071"/>
    </person>
    <person id="ped215" depart="1698.15" type="ped_pedestrian">
        <walk from="532618598#1" to="-460084103#0"/>
    </person>
    <person id="ped216" depart="1706.05" type="ped_pedestrian">
        <walk from="466067422#0" to="532618599#0"/>
    </person>
    <person id="ped217" depart="1713.95" type="ped_pedestrian">
        <walk from="-525162455" to="530765262#2"/>
    </person>
    <person id="ped218" depart="1721.84" type="ped_pedestrian">
        <walk from="-545913074" to="466067428#0"/>
    </person>
    <person id="ped219" depart="1729.74" type="ped_pedestrian">
        <walk from="546213397#0" to="466067447#1"/>
    </person>
    <person id="ped220" depart="1737.64" type="ped_pedestrian">
        <walk from="546213396#2" to="546218393#1"/>
    </person>
    <person id="ped221" depart="1745.54" type="ped_pedestrian">
        <walk from="-547212110" to="-530765262#0"/>
    </person>
    <person id="ped222" depart="1753.44" type="ped_pedestrian">