<?xml version="1.0" encoding="UTF-8"?>

<!-- generated on 2025-03-15 18:31:01.660492 by osmWebWizard.py v1_22_0+0002-63e50f52594
<configuration>
    <net-file value="C:\Users\user\Sumo\2025-03-15-18-30-05\osm.net.xml.gz"/>
    <output-trip-file value="C:\Users\user\Sumo\2025-03-15-18-30-05\osm.motorcycle.trips.xml"/>
    <route-file value="C:\Users\user\Sumo\2025-03-15-18-30-05\osm.motorcycle.rou.xml"/>
    <prefix value="motorcycle"/>
    <trip-attributes value="departLane=&quot;best&quot;"/>
    <fringe-start-attributes value="departSpeed=&quot;max&quot;"/>
    <vehicle-class value="motorcycle"/>
    <fringe-factor value="4.1"/>
    <vclass value="motorcycle"/>
    <via-edge-types value="highway.motorway,highway.motorway_link,highway.trunk_link,highway.primary_link,highway.secondary_link,highway.tertiary_link"/>
    <max-distance value="1200.0"/>
    <remove-loops value="True"/>
    <validate value="True"/>
    <insertion-density value="4.6"/>
</configuration>
-->

<!-- generated on 2025-03-15 18:31:00 by Eclipse SUMO duarouter Version 1.22.0
<duarouterConfiguration xmlns:xsi="http://www.w3.org/2001/XMLSchema-instance" xsi:noNamespaceSchemaLocation="http://sumo.dlr.de/xsd/duarouterConfiguration.xsd">

    <input>
        <net-file value="C:\Users\user\Sumo\2025-03-15-18-30-05\osm.net.xml.gz"/>
        <route-files value="C:\Users\user\Sumo\2025-03-15-18-30-05\osm.motorcycle.trips.xml"/>
    </input>

    <output>
        <output-file value="C:\Users\user\Sumo\2025-03-15-18-30-05\osm.motorcycle.trips.xml.tmp"/>
        <alternatives-output value="NUL"/>
        <write-trips value="true"/>
    </output>

    <processing>
        <remove-loops value="true"/>
    </processing>

    <time>
        <begin value="0.0"/>
        <end value="3600.0"/>
    </time>

    <report>
        <no-warnings value="true"/>
        <ignore-errors value="true"/>
        <no-step-log value="true"/>
    </report>

</duarouterConfiguration>
-->

<routes xmlns:xsi="http://www.w3.org/2001/XMLSchema-instance" xsi:noNamespaceSchemaLocation="http://sumo.dlr.de/xsd/routes_file.xsd">
    <vType id="motorcycle_motorcycle" vClass="motorcycle"/>
    <trip id="motorcycle0" type="motorcycle_motorcycle" depart="0.00" departLane="best" departSpeed="max" from="-4709119" to="-4709171#1"/>
    <trip id="motorcycle1" type="motorcycle_motorcycle" depart="2.40" departLane="best" from="460117248#0" to="435512521#2"/>
    <trip id="motorcycle2" type="motorcycle_motorcycle" depart="4.81" departLane="best" departSpeed="max" from="-580540658#1" to="-13986805#2"/>
    <trip id="motorcycle3" type="motorcycle_motorcycle" depart="7.21" departLane="best" departSpeed="max" from="-435496777#1" to="13987463#9"/>
    <trip id="motorcycle4" type="motorcycle_motorcycle" depart="9.62" departLane="best" from="-13985250" to="-460636256#0"/>
    <trip id="motorcycle5" type="motorcycle_motorcycle" depart="12.02" departLane="best" from="246446006#3" to="20548866#19"/>
    <trip id="motorcycle6" type="motorcycle_motorcycle" depart="14.42" departLane="best" from="-20548866#7" to="-20550160#0"/>
    <trip id="motorcycle7" type="motorcycle_motorcycle" depart="16.83" departLane="best" from="435496769" to="13987733#1"/>
    <trip id="motorcycle8" type="motorcycle_motorcycle" depart="19.23" departLane="best" from="-435512531#2" to="48526068#5"/>
    <trip id="motorcycle9" type="motorcycle_motorcycle" depart="21.64" departLane="best" from="466067452" to="-466067436"/>
    <trip id="motorcycle10" type="motorcycle_motorcycle" depart="24.04" departLane="best" from="-466067437#3" to="592336331"/>
    <trip id="motorcycle11" type="motorcycle_motorcycle" depart="26.44" departLane="best" departSpeed="max" from="-390581215" to="-590969507#0"/>
    <trip id="motorcycle12" type="motorcycle_motorcycle" depart="28.85" departLane="best" from="-390204453#0" to="592336333#3"/>
    <trip id="motorcycle13" type="motorcycle_motorcycle" depart="31.25" departLane="best" departSpeed="max" from="-20549422#1" to="422104861"/>
    <trip id="motorcycle14" type="motorcycle_motorcycle" depart="33.66" departLane="best" departSpeed="max" from="991157800" to="20547017"/>
    <trip id="motorcycle15" type="motorcycle_motorcycle" depart="36.06" departLane="best" departSpeed="max" from="428066227" to="20547030#1"/>
    <trip id="motorcycle16" type="motorcycle_motorcycle" depart="38.46" departLane="best" from="4709198#5" to="20547018"/>
    <trip id="motorcycle17" type="motorcycle_motorcycle" depart="40.87" departLane="best" from="-20547036#0" to="13985258#4"/>
    <trip id="motorcycle18" type="motorcycle_motorcycle" depart="43.27" departLane="best" departSpeed="max" from="-588742835" to="13987741"/>
    <trip id="motorcycle19" type="motorcycle_motorcycle" depart="45.68" departLane="best" departSpeed="max" from="-20549437" to="-4709182#3"/>
    <trip id="motorcycle20" type="motorcycle_motorcycle" depart="48.08" departLane="best" departSpeed="max" from="-435512533#1" to="590526264#2"/>
    <trip id="motorcycle21" type="motorcycle_motorcycle" depart="50.48" departLane="best" departSpeed="max" from="-20548876#1" to="-772450686#2"/>
    <trip id="motorcycle22" type="motorcycle_motorcycle" depart="52.89" departLane="best" departSpeed="max" from="-460117266#4" to="591858959#1"/>
    <trip id="motorcycle23" type="motorcycle_motorcycle" depart="55.29" departLane="best" from="-590456070" to="562503477#0"/>
    <trip id="motorcycle24" type="motorcycle_motorcycle" depart="57.70" departLane="best" from="49326658#0" to="-435496778#0"/>
    <trip id="motorcycle25" type="motorcycle_motorcycle" depart="60.10" departLane="best" from="-592369197" to="-466067458"/>
    <trip id="motorcycle26" type="motorcycle_motorcycle" depart="62.50" departLane="best" from="-518018240#0" to="20547020#7"/>
    <trip id="motorcycle27" type="motorcycle_motorcycle" depart="64.91" departLane="best" from="13985252" to="-465267600#2"/>
    <trip id="motorcycle28" type="motorcycle_motorcycle" depart="67.31" departLane="best" from="-390204457#3" to="-48526982#2"/>
    <trip id="motorcycle29" type="motorcycle_motorcycle" depart="69.72" departLane="best" departSpeed="max" from="-699932342#2" to="49326902"/>
    <trip id="motorcycle30" type="motorcycle_motorcycle" depart="72.12" departLane="best" departSpeed="max" from="402177031#0" to="-49326651"/>
    <trip id="motorcycle31" type="motorcycle_motorcycle" depart="74.52" departLane="best" from="-4709230#3" to="-4709207#0"/>
    <trip id="motorcycle32" type="motorcycle_motorcycle" depart="76.93" departLane="best" from="-20546956#1" to="1067498619"/>
    <trip id="motorcycle33" type="motorcycle_motorcycle" depart="79.33" departLane="best" departSpeed="max" from="-466067434" to="592137663#3"/>
    <trip id="motorcycle34" type="motorcycle_motorcycle" depart="81.74" departLane="best" from="-49326652#3" to="-435134257"/>
    <trip id="motorcycle35" type="motorcycle_motorcycle" depart="84.14" departLane="best" departSpeed="max" from="20548871" to="958035013#5"/>
    <trip id="motorcycle36" type="motorcycle_motorcycle" depart="86.54" departLane="best" from="363662927#5" to="-4717313#3"/>
    <trip id="motorcycle37" type="motorcycle_motorcycle" depart="88.95" departLane="best" from="390581212" to="592365295#1"/>
    <trip id="motorcycle38" type="motorcycle_motorcycle" depart="91.35" departLane="best" from="-20549418#1" to="20548882#1"/>
    <trip id="motorcycle39" type="motorcycle_motorcycle" depart="93.76" departLane="best" departSpeed="max" from="-1164029055" to="4709230#1"/>
    <trip id="motorcycle40" type="motorcycle_motorcycle" depart="96.16" departLane="best" from="460591050#0" to="20548881#0"/>
    <trip id="motorcycle41" type="motorcycle_motorcycle" depart="98.56" departLane="best" departSpeed="max" from="-20547017" to="580540666"/>
    <trip id="motorcycle42" type="motorcycle_motorcycle" depart="100.97" departLane="best" from="-460117266#3" to="-20551343#0"/>
    <trip id="motorcycle43" type="motorcycle_motorcycle" depart="103.37" departLane="best" from="-390204457#1" to="592116097#2"/>
    <trip id="motorcycle44" type="motorcycle_motorcycle" depart="105.78" departLane="best" from="13984262#3" to="-4709182#8"/>
    <trip id="motorcycle45" type="motorcycle_motorcycle" depart="108.18" departLane="best" departSpeed="max" from="-590983899#1" to="-49326656#0"/>
    <trip id="motorcycle46" type="motorcycle_motorcycle" depart="110.58" departLane="best" from="4709227#1" to="-4709186#4"/>
    <trip id="motorcycle47" type="motorcycle_motorcycle" depart="112.99" departLane="best" from="-4717558" to="577222458"/>
    <trip id="motorcycle48" type="motorcycle_motorcycle" depart="115.39" departLane="best" from="-592336333#3" to="-390204457#4"/>
    <trip id="motorcycle49" type="motorcycle_motorcycle" depart="117.80" departLane="best" from="-723811123#1" to="-4717316#2"/>
    <trip id="motorcycle50" type="motorcycle_motorcycle" depart="120.20" departLane="best" departSpeed="max" from="-991854951" to="465267600#6"/>
    <trip id="motorcycle51" type="motorcycle_motorcycle" depart="122.60" departLane="best" departSpeed="max" from="390581217#0" to="-50599054#1"/>
    <trip id="motorcycle52" type="motorcycle_motorcycle" depart="125.01" departLane="best" from="-4709226#2" to="-60659679#0"/>
    <trip id="motorcycle53" type="motorcycle_motorcycle" depart="127.41" departLane="best" from="592365294" to="435512522"/>
    <trip id="motorcycle54" type="motorcycle_motorcycle" depart="129.82" departLane="best" from="-4709216#4" to="20548875#0"/>
    <trip id="motorcycle55" type="motorcycle_motorcycle" depart="132.22" departLane="best" from="-1011078576#1" to="-48484870"/>
    <trip id="motorcycle56" type="motorcycle_motorcycle" depart="134.62" departLane="best" from="363662927#8" to="1220178756"/>
    <trip id="motorcycle57" type="motorcycle_motorcycle" depart="137.03" departLane="best" departSpeed="max" from="-590426938" to="-466067458"/>
    <trip id="motorcycle58" type="motorcycle_motorcycle" depart="139.43" departLane="best" from="20550140#2" to="-577205597#0"/>
    <trip id="motorcycle59" type="motorcycle_motorcycle" depart="141.84" departLane="best" from="4750841#8" to="4709205#0"/>
    <trip id="motorcycle60" type="motorcycle_motorcycle" depart="144.24" departLane="best" from="422103308#1" to="-4709182#3"/>
    <trip id="motorcycle61" type="motorcycle_motorcycle" depart="146.64" departLane="best" from="-579323356" to="427818590"/>
    <trip id="motorcycle62" type="motorcycle_motorcycle" depart="149.05" departLane="best" departSpeed="max" from="-428067056#2" to="460117240#2"/>
    <trip id="motorcycle63" type="motorcycle_motorcycle" depart="151.45" departLane="best" from="-60659681#0" to="4709210#0"/>
    <trip id="motorcycle64" type="motorcycle_motorcycle" depart="153.86" departLane="best" from="-773641177" to="-157837957"/>
    <trip id="motorcycle65" type="motorcycle_motorcycle" depart="156.26" departLane="best" departSpeed="max" from="4709171#0" to="157837955#1"/>
    <trip id="motorcycle66" type="motorcycle_motorcycle" depart="158.66" departLane="best" from="-4693394#6" to="-49326676#0"/>
    <trip id="motorcycle67" type="motorcycle_motorcycle" depart="161.07" departLane="best" departSpeed="max" from="1190731584" to="363662928"/>
    <trip id="motorcycle68" type="motorcycle_motorcycle" depart="163.47" departLane="best" from="-588738400#0" to="-13986804#2"/>
    <trip id="motorcycle69" type="motorcycle_motorcycle" depart="165.88" departLane="best" from="-13987463#19" to="-590840885"/>
    <trip id="motorcycle70" type="motorcycle_motorcycle" depart="168.28" departLane="best" from="4693412#4" to="-590840885"/>
    <trip id="motorcycle71" type="motorcycle_motorcycle" depart="170.68" departLane="best" from="466067424" to="49326658#1"/>
    <trip id="motorcycle72" type="motorcycle_motorcycle" depart="173.09" departLane="best" from="-460591050#0" to="-20549433#10"/>
    <trip id="motorcycle73" type="motorcycle_motorcycle" depart="175.49" departLane="best" departSpeed="max" from="995158081" to="-580528158"/>
    <trip id="motorcycle74" type="motorcycle_motorcycle" depart="177.90" departLane="best" from="-13985264#3" to="-4693412#7"/>
    <trip id="motorcycle75" type="motorcycle_motorcycle" depart="180.30" departLane="best" departSpeed="max" from="608688060" to="-592365294"/>
    <trip id="motorcycle76" type="motorcycle_motorcycle" depart="182.70" departLane="best" departSpeed="max" from="-20549437" to="-955778450#2"/>
    <trip id="motorcycle77" type="motorcycle_motorcycle" depart="185.11" departLane="best" from="-49326658#11" to="48526996#1"/>
    <trip id="motorcycle78" type="motorcycle_motorcycle" depart="187.51" departLane="best" from="-466067457" to="48526068#12"/>
    <trip id="motorcycle79" type="motorcycle_motorcycle" depart="189.92" departLane="best" from="-466067442#2" to="49326897#2"/>
    <trip id="motorcycle80" type="motorcycle_motorcycle" depart="192.32" departLane="best" departSpeed="max" from="428080112#0" to="-49326656#5"/>
    <trip id="motorcycle81" type="motorcycle_motorcycle" depart="194.72" departLane="best" from="-460588679" to="-390581196#1"/>
    <trip id="motorcycle82" type="motorcycle_motorcycle" depart="197.13" departLane="best" departSpeed="max" from="-428066247#2" to="-4693412#0"/>
    <trip id="motorcycle83" type="motorcycle_motorcycle" depart="199.53" departLane="best" from="-592369194" to="-466067442#2"/>
    <trip id="motorcycle84" type="motorcycle_motorcycle" depart="201.94" departLane="best" from="4709186#6" to="-20550164#0"/>
    <trip id="motorcycle85" type="motorcycle_motorcycle" depart="204.34" departLane="best" from="-987818673#0" to="-4750838#5"/>
    <trip id="motorcycle86" type="motorcycle_motorcycle" depart="206.74" departLane="best" from="772450686#0" to="20548882#1"/>
    <trip id="motorcycle87" type="motorcycle_motorcycle" depart="209.15" departLane="best" from="-20546958#1" to="427818590"/>
    <trip id="motorcycle88" type="motorcycle_motorcycle" depart="211.55" departLane="best" from="-13987465#7" to="428080107"/>
    <trip id="motorcycle89" type="motorcycle_motorcycle" depart="213.96" departLane="best" from="4709218#3" to="-4709182#8"/>
    <trip id="motorcycle91" type="motorcycle_motorcycle" depart="218.76" departLane="best" departSpeed="max" from="-435134262#1" to="-466067441#2"/>
    <trip id="motorcycle92" type="motorcycle_motorcycle" depart="221.17" departLane="best" departSpeed="max" from="390519494#0" to="435134253"/>
    <trip id="motorcycle93" type="motorcycle_motorcycle" depart="223.57" departLane="best" departSpeed="max" from="-427818586" to="-20548887#2"/>
    <trip id="motorcycle94" type="motorcycle_motorcycle" depart="225.98" departLane="best" departSpeed="max" from="157837962" to="-48526725#0"/>
    <trip id="motorcycle95" type="motorcycle_motorcycle" depart="228.38" departLane="best" from="4420669#10" to="460117266#3"/>
    <trip id="motorcycle96" type="motorcycle_motorcycle" depart="230.78" departLane="best" from="4709216#0" to="402177029#1"/>
    <trip id="motorcycle97" type="motorcycle_motorcycle" depart="233.19" departLane="best" departSpeed="max" from="-580540666" to="20548866#18"/>
    <trip id="motorcycle99" type="motorcycle_motorcycle" depart="238.00" departLane="best" departSpeed="max" from="-390597012" to="-49326658#10"/>
    <trip id="motorcycle100" type="motorcycle_motorcycle" depart="240.40" departLane="best" from="428067054#6" to="460117244#0"/>
    <trip id="motorcycle101" type="motorcycle_motorcycle" depart="242.80" departLane="best" from="60659680#7" to="-20549429#4"/>
    <trip id="motorcycle102" type="motorcycle_motorcycle" depart="245.21" departLane="best" departSpeed="max" from="-4717289#1" to="-4709225#5"/>
    <trip id="motorcycle103" type="motorcycle_motorcycle" depart="247.61" departLane="best" from="592377346" to="997075506"/>
    <trip id="motorcycle104" type="motorcycle_motorcycle" depart="250.02" departLane="best" from="-592116098#0" to="428079977"/>
    <trip id="motorcycle105" type="motorcycle_motorcycle" depart="252.42" departLane="best" from="401753885#7" to="-518018240#1"/>
    <trip id="motorcycle106" type="motorcycle_motorcycle" depart="254.82" departLane="best" departSpeed="max" from="4750828#0" to="20548876#1"/>
    <trip id="motorcycle107" type="motorcycle_motorcycle" depart="257.23" departLane="best" from="20548866#7" to="-4709201#0"/>
    <trip id="motorcycle108" type="motorcycle_motorcycle" depart="259.63" departLane="best" departSpeed="max" from="577205599#0" to="577205601"/>
    <trip id="motorcycle109" type="motorcycle_motorcycle" depart="262.04" departLane="best" from="4709121#2" to="-4750841#2"/>
    <trip id="motorcycle110" type="motorcycle_motorcycle" depart="264.44" departLane="best" departSpeed="max" from="-723815318#3" to="-48526988"/>
    <trip id="motorcycle111" type="motorcycle_motorcycle" depart="266.84" departLane="best" from="-592377339" to="-428076711#4"/>
    <trip id="motorcycle112" type="motorcycle_motorcycle" depart="269.25" departLane="best" departSpeed="max" from="-991854951" to="-579273613"/>
    <trip id="motorcycle113" type="motorcycle_motorcycle" depart="271.65" departLane="best" from="-590840884" to="-49326680#3"/>
    <trip id="motorcycle114" type="motorcycle_motorcycle" depart="274.06" departLane="best" from="-428067046#4" to="460117241#3"/>
    <trip id="motorcycle115" type="motorcycle_motorcycle" depart="276.46" departLane="best" from="-13985265#1" to="-13987463#13"/>
    <trip id="motorcycle116" type="motorcycle_motorcycle" depart="278.86" departLane="best" from="-157837955#4" to="579252762#0"/>
    <trip id="motorcycle117" type="motorcycle_motorcycle" depart="281.27" departLane="best" from="4420669#0" to="-60659680#4"/>
    <trip id="motorcycle119" type="motorcycle_motorcycle" depart="286.08" departLane="best" from="-49326662#2" to="-49326668"/>
    <trip id="motorcycle120" type="motorcycle_motorcycle" depart="288.48" departLane="best" departSpeed="max" from="-20548878#1" to="428046601"/>
    <trip id="motorcycle121" type="motorcycle_motorcycle" depart="290.88" departLane="best" from="-13987458#0" to="4750852#4"/>
    <trip id="motorcycle122" type="motorcycle_motorcycle" depart="293.29" departLane="best" from="13985268#0" to="4750845#2"/>
    <trip id="motorcycle123" type="motorcycle_motorcycle" depart="295.69" departLane="best" from="49326913#3" to="390597012"/>
    <trip id="motorcycle124" type="motorcycle_motorcycle" depart="298.10" departLane="best" from="-460117241#2" to="-590836835#2"/>
    <trip id="motorcycle125" type="motorcycle_motorcycle" depart="300.50" departLane="best" from="-246446006#2" to="1190731585"/>
    <trip id="motorcycle126" type="motorcycle_motorcycle" depart="302.90" departLane="best" from="428080112#1" to="590983902#1"/>
    <trip id="motorcycle127" type="motorcycle_motorcycle" depart="305.31" departLane="best" from="773641184#3" to="435134252#2"/>
    <trip id="motorcycle128" type="motorcycle_motorcycle" depart="307.71" departLane="best" departSpeed="max" from="-4709119" to="20549427#2"/>
    <trip id="motorcycle129" type="motorcycle_motorcycle" depart="310.12" departLane="best" from="-4709190#2" to="4750859"/>
    <trip id="motorcycle130" type="motorcycle_motorcycle" depart="312.52" departLane="best" from="-20548866#18" to="-580540658#0"/>
    <trip id="motorcycle131" type="motorcycle_motorcycle" depart="314.92" departLane="best" departSpeed="max" from="-4709202#2" to="-4709199#0"/>
    <trip id="motorcycle132" type="motorcycle_motorcycle" depart="317.33" departLane="best" departSpeed="max" from="-427818590" to="-427818588#0"/>
    <trip id="motorcycle133" type="motorcycle_motorcycle" depart="319.73" departLane="best" from="4750853#4" to="13985254#1"/>
    <trip id="motorcycle134" type="motorcycle_motorcycle" depart="322.14" departLane="best" from="4420669#16" to="779414602#2"/>
    <trip id="motorcycle135" type="motorcycle_motorcycle" depart="324.54" departLane="best" departSpeed="max" from="-1220178767" to="20547030#1"/>
    <trip id="motorcycle136" type="motorcycle_motorcycle" depart="326.94" departLane="best" from="402177028" to="4709191#2"/>
    <trip id="motorcycle137" type="motorcycle_motorcycle" depart="329.35" departLane="best" departSpeed="max" from="605944456" to="13987458#0"/>
    <trip id="motorcycle138" type="motorcycle_motorcycle" depart="331.75" departLane="best" from="592377345" to="-49326913#2"/>
    <trip id="motorcycle139" type="motorcycle_motorcycle" depart="334.16" departLane="best" from="390581196#3" to="-428066259#2"/>
    <trip id="motorcycle140" type="motorcycle_motorcycle" depart="336.56" departLane="best" from="4709210#2" to="-4709209#0"/>
    <trip id="motorcycle141" type="motorcycle_motorcycle" depart="338.96" departLane="best" departSpeed="max" from="-20550155#2" to="20549424#1"/>
    <trip id="motorcycle142" type="motorcycle_motorcycle" depart="341.37" departLane="best" from="-49326912#0" to="-49326913#3"/>
    <trip id="motorcycle143" type="motorcycle_motorcycle" depart="343.77" departLane="best" from="-1067494730#3" to="518018242#1"/>
    <trip id="motorcycle144" type="motorcycle_motorcycle" depart="346.18" departLane="best" departSpeed="max" from="390519494#0" to="-13986777#0"/>
    <trip id="motorcycle145" type="motorcycle_motorcycle" depart="348.58" departLane="best" departSpeed="max" from="-1220178768" to="-4750841#2"/>
    <trip id="motorcycle146" type="motorcycle_motorcycle" depart="350.98" departLane="best" from="-460591051#1" to="-20546957#0"/>
    <trip id="motorcycle147" type="motorcycle_motorcycle" depart="353.39" departLane="best" from="-4709205#0" to="579234150#2"/>
    <trip id="motorcycle148" type="motorcycle_motorcycle" depart="355.79" departLane="best" from="-723815317#0" to="20547030#0"/>
    <trip id="motorcycle149" type="motorcycle_motorcycle" depart="358.20" departLane="best" from="-592336335" to="-592369197"/>
    <trip id="motorcycle150" type="motorcycle_motorcycle" depart="360.60" departLane="best" departSpeed="max" from="-13987744" to="4750841#2"/>
    <trip id="motorcycle151" type="motorcycle_motorcycle" depart="363.00" departLane="best" from="20550140#2" to="20548875#2"/>
    <trip id="motorcycle152" type="motorcycle_motorcycle" depart="365.41" departLane="best" from="20548866#1" to="-20550162#0"/>
    <trip id="motorcycle153" type="motorcycle_motorcycle" depart="367.81" departLane="best" from="-435135727#5" to="49326902"/>
    <trip id="motorcycle154" type="motorcycle_motorcycle" depart="370.22" departLane="best" from="4400935#1" to="4693394#1"/>
    <trip id="motorcycle155" type="motorcycle_motorcycle" depart="372.62" departLane="best" from="580472451#0" to="-20550157#0"/>
    <trip id="motorcycle156" type="motorcycle_motorcycle" depart="375.02" departLane="best" departSpeed="max" from="-20548876#1" to="4709186#6"/>
    <trip id="motorcycle157" type="motorcycle_motorcycle" depart="377.43" departLane="best" from="-48526068#5" to="435135727#2"/>
    <trip id="motorcycle158" type="motorcycle_motorcycle" depart="379.83" departLane="best" from="465267600#1" to="-579234151"/>
    <trip id="motorcycle159" type="motorcycle_motorcycle" depart="382.24" departLane="best" from="20547020#7" to="580534810#0"/>
    <trip id="motorcycle160" type="motorcycle_motorcycle" depart="384.64" departLane="best" from="49326653#9" to="-770918060#4"/>
    <trip id="motorcycle161" type="motorcycle_motorcycle" depart="387.04" departLane="best" from="435495853#0" to="-49326658#5"/>
    <trip id="motorcycle162" type="motorcycle_motorcycle" depart="389.45" departLane="best" from="50599069" to="-428066259#3"/>
    <trip id="motorcycle163" type="motorcycle_motorcycle" depart="391.85" departLane="best" from="49326653#1" to="466067434"/>
    <trip id="motorcycle164" type="motorcycle_motorcycle" depart="394.26" departLane="best" from="-20547033#2" to="-157837962"/>
    <trip id="motorcycle165" type="motorcycle_motorcycle" depart="396.66" departLane="best" from="-390204462#0" to="390581218#1"/>
    <trip id="motorcycle166" type="motorcycle_motorcycle" depart="399.06" departLane="best" from="422104862#0" to="-4750829#4"/>
    <trip id="motorcycle167" type="motorcycle_motorcycle" depart="401.47" departLane="best" departSpeed="max" from="-13986801#2" to="-13985258#3"/>
    <trip id="motorcycle168" type="motorcycle_motorcycle" depart="403.87" departLane="best" departSpeed="max" from="435496780#0" to="-699932342#0"/>
    <trip id="motorcycle169" type="motorcycle_motorcycle" depart="406.28" departLane="best" from="-4717316#1" to="4750867"/>
    <trip id="motorcycle170" type="motorcycle_motorcycle" depart="408.68" departLane="best" from="-4750851#3" to="-518018242#1"/>
    <trip id="motorcycle171" type="motorcycle_motorcycle" depart="411.08" departLane="best" from="-401753885#3" to="-13987470#3"/>
    <trip id="motorcycle172" type="motorcycle_motorcycle" depart="413.49" departLane="best" from="-460084107#1" to="48526982#1"/>
    <trip id="motorcycle173" type="motorcycle_motorcycle" depart="415.89" departLane="best" departSpeed="max" from="-362183801" to="460611744"/>
    <trip id="motorcycle174" type="motorcycle_motorcycle" depart="418.30" departLane="best" from="-20549433#13" to="577222458"/>
    <trip id="motorcycle175" type="motorcycle_motorcycle" depart="420.70" departLane="best" departSpeed="max" from="-4709217#2" to="-4750841#1"/>
    <trip id="motorcycle176" type="motorcycle_motorcycle" depart="423.10" departLane="best" from="13987470#0" to="13987465#8"/>
    <trip id="motorcycle177" type="motorcycle_motorcycle" depart="425.51" departLane="best" departSpeed="max" from="-20547018" to="577222458"/>
    <trip id="motorcycle179" type="motorcycle_motorcycle" depart="430.32" departLane="best" departSpeed="max" from="-723815318#3" to="1190768692"/>
    <trip id="motorcycle180" type="motorcycle_motorcycle" depart="432.72" departLane="best" from="13984262#7" to="-4750844#1"/>
    <trip id="motorcycle181" type="motorcycle_motorcycle" depart="435.12" departLane="best" departSpeed="max" from="580540658#0" to="-958116507#1"/>
    <trip id="motorcycle182" type="motorcycle_motorcycle" depart="437.53" departLane="best" from="-4717289#0" to="1337872965"/>
    <trip id="motorcycle183" type="motorcycle_motorcycle" depart="439.93" departLane="best" from="-4750859" to="-4648013#2"/>
    <trip id="motorcycle184" type="motorcycle_motorcycle" depart="442.34" departLane="best" from="-4709186#6" to="-60659679#1"/>
    <trip id="motorcycle185" type="motorcycle_motorcycle" depart="444.74" departLane="best" departSpeed="max" from="-20551346#1" to="-580528158"/>
    <trip id="motorcycle186" type="motorcycle_motorcycle" depart="447.14" departLane="best" from="592155948#3" to="-49326658#7"/>
    <trip id="motorcycle187" type="motorcycle_motorcycle" depart="449.55" departLane="best" from="4750886" to="-4709186#6"/>
    <trip id="motorcycle188" type="motorcycle_motorcycle" depart="451.95" departLane="best" from="49326658#3" to="-435495854"/>
    <trip id="motorcycle189" type="motorcycle_motorcycle" depart="454.36" departLane="best" from="427818594" to="4709199#0"/>
    <trip id="motorcycle190" type="motorcycle_motorcycle" depart="456.76" departLane="best" from="4648281#5" to="-958116506#0"/>
    <trip id="motorcycle191" type="motorcycle_motorcycle" depart="459.16" departLane="best" from="4717321#0" to="1220178767"/>
    <trip id="motorcycle193" type="motorcycle_motorcycle" depart="463.97" departLane="best" from="585425470#5" to="-428067056#0"/>
    <trip id="motorcycle194" type="motorcycle_motorcycle" depart="466.38" departLane="best" from="-4750883" to="-13986777#3"/>
    <trip id="motorcycle195" type="motorcycle_motorcycle" depart="468.78" departLane="best" from="-13987465#5" to="13987463#12"/>
    <trip id="motorcycle196" type="motorcycle_motorcycle" depart="471.18" departLane="best" from="-591859643" to="49326667#0"/>
    <trip id="motorcycle197" type="motorcycle_motorcycle" depart="473.59" departLane="best" from="-246446006#3" to="-4750842#1"/>
    <trip id="motorcycle198" type="motorcycle_motorcycle" depart="475.99" departLane="best" departSpeed="max" from="-20551342" to="-48484870"/>
    <trip id="motorcycle199" type="motorcycle_motorcycle" depart="478.40" departLane="best" from="48526056#1" to="460117240#2"/>
    <trip id="motorcycle200" type="motorcycle_motorcycle" depart="480.80" departLane="best" from="-4709216#5" to="-157837955#0"/>
    <trip id="motorcycle201" type="motorcycle_motorcycle" depart="483.20" departLane="best" from="-460117242#0" to="-428067049#0"/>
    <trip id="motorcycle202" type="motorcycle_motorcycle" depart="485.61" departLane="best" from="772450686#1" to="20548866#9"/>
    <trip id="motorcycle203" type="motorcycle_motorcycle" depart="488.01" departLane="best" from="-958035013#10" to="20548882#3"/>
    <trip id="motorcycle204" type="motorcycle_motorcycle" depart="490.42" departLane="best" departSpeed="max" from="20550149" to="779414602#7"/>
    <trip id="motorcycle205" type="motorcycle_motorcycle" depart="492.82" departLane="best" from="-4709216#3" to="-579273613"/>
    <trip id="motorcycle206" type="motorcycle_motorcycle" depart="495.22" departLane="best" from="4709187#0" to="4709182#2"/>
    <trip id="motorcycle207" type="motorcycle_motorcycle" depart="497.63" departLane="best" from="-13986805#1" to="-460636256#0"/>
    <trip id="motorcycle208" type="motorcycle_motorcycle" depart="500.03" departLane="best" from="1067498618" to="-4709228#0"/>
    <trip id="motorcycle209" type="motorcycle_motorcycle" depart="502.44" departLane="best" from="49326681#1" to="-50599069"/>
    <trip id="motorcycle210" type="motorcycle_motorcycle" depart="504.84" departLane="best" from="579323357" to="-4709191#3"/>