<?xml version="1.0" encoding="UTF-8"?>

<!-- generated on 2025-03-15 18:31:16.229280 by osmWebWizard.py v1_22_0+0002-63e50f52594
<configuration>
    <net-file value="C:\Users\user\Sumo\2025-03-15-18-30-05\osm.net.xml.gz"/>
    <output-trip-file value="C:\Users\user\Sumo\2025-03-15-18-30-05\osm.pedestrian.trips.xml"/>
    <route-file value="C:\Users\user\Sumo\2025-03-15-18-30-05\osm.pedestrian.rou.xml"/>
    <pedestrians value="True"/>
    <prefix value="ped"/>
    <vehicle-class value="pedestrian"/>
    <fringe-factor value="25"/>
    <max-distance value="2000.0"/>
    <insertion-density value="10.0"/>
</configuration>
-->

<!-- generated on 2025-03-15 18:31:15 by Eclipse SUMO duarouter Version 1.22.0
<duarouterConfiguration xmlns:xsi="http://www.w3.org/2001/XMLSchema-instance" xsi:noNamespaceSchemaLocation="http://sumo.dlr.de/xsd/duarouterConfiguration.xsd">

    <input>
        <net-file value="C:\Users\user\Sumo\2025-03-15-18-30-05\osm.net.xml.gz"/>
        <route-files value="C:\Users\user\Sumo\2025-03-15-18-30-05\osm.pedestrian.trips.xml"/>
    </input>

    <output>
        <output-file value="C:\Users\user\Sumo\2025-03-15-18-30-05\osm.pedestrian.rou.xml"/>
        <alternatives-output value="NUL"/>
    </output>

    <time>
        <begin value="0.0"/>
        <end value="3600.0"/>
    </time>

    <report>
        <no-warnings value="true"/>
        <ignore-errors value="true"/>
        <no-step-log value="true"/>
    </report>

</duarouterConfiguration>
-->

<routes xmlns:xsi="http://www.w3.org/2001/XMLSchema-instance" xsi:noNamespaceSchemaLocation="http://sumo.dlr.de/xsd/routes_file.xsd">
    <vType id="ped_pedestrian" vClass="pedestrian"/>
    <person id="ped0" type="ped_pedestrian" depart="0.00">
        <walk edges="532618599#1 532618596#0 532618596#1 532618596#2 532618600#1 532618601 -48525834#1 -460084104 -460084103#4 -460084103#3 -460084103#2 -460084103#1 -460084103#0"/>
    </person>
    <person id="ped3" type="ped_pedestrian" depart="23.70">
        <walk edges="466067428#0 -466067427#1 -466067427#2 -466067427#3 546213402 -48526679#0 -545672785 -48525834#14 -48525834#13 48525834#12 -48525834#11 -48525834#10 -48525834#9 -48525834#8 -48525834#7 -48525834#6 -48525834#5 -48525943#2 -460084103#0"/>
    </person>
    <person id="ped4" type="ped_pedestrian" depart="31.59">
        <walk edges="-545913087 545913060#1 -590772373#0 -590772373#1 590772372 545913063#0 -545913063#1 -48525834#10 -48525834#11 48525834#12 -48525834#13 -48525834#14 -545672785 -48526679#0 546213402 -466067427#3 466067428#3 466067428#2 466067429#1 466067429#0 -48525667#1 -48525667#2 -48525667#4 530778853#0 530778853#1 530781078#1"/>
    </person>
    <person id="ped5" type="ped_pedestrian" depart="39.49">
        <walk edges="532618600#0 532618596#2 532618596#1 532618597#1"/>
    </person>
    <person id="ped6" type="ped_pedestrian" depart="47.39">
        <walk edges="-545913087 545913060#1 -590772373#0 -545913066#4 -545913066#3 -545913066#2 -545913066#1 545913065 -590772370 -48525834#8 -48525834#7 -48525834#6 -48525834#5 -48525834#4 48525834#3 -48525834#2 -48525834#1 532618601 532618600#1"/>
    </person>
    <person id="ped9" type="ped_pedestrian" depart="71.09">
        <walk edges="552116453 -552116453 -48525722#1 -48525667#0 466067429#0 466067430#0 466067428#1"/>
    </person>
    <person id="ped13" type="ped_pedestrian" depart="102.68">
        <walk edges="530778853#0 -48525667#4 -48525667#2 -48525667#1 -48525667#0 -48525722#1 -48525722#2 -48525834#18 590829848"/>
    </person>
    <person id="ped14" type="ped_pedestrian" depart="110.58">
        <walk edges="466067421#2 466067423 466067422#1 466067422#2 -466067422#3 -466067422#4 -466067422#5 48525834#12 -48525834#11 -48525834#10 -48525834#9 -48525834#8 -48525834#7 -48525834#6 -48525834#5 -48525834#4 48525834#3 -48525834#2 -48525834#1 532618601 532618600#1 532618596#2 532618598#0"/>
    </person>
    <person id="ped18" type="ped_pedestrian" depart="142.17">
        <walk edges="-545913104 545913108#1 545913101 545913099#1 -545913105#0 -466067422#4 -466067422#3 466067422#2 466067422#1 466067423 466067421#1"/>
    </person>
    <person id="ped19" type="ped_pedestrian" depart="150.07">
        <walk edges="-48525667#4 -48525667#2 -48525667#1 466067429#0 466067429#1 466067428#2 466067428#3 -466067427#3 546213402 -48526679#0 -545672785 -48525834#14 -48525834#13 48525834#12 -48525834#11 -48525834#10 -48525834#9 -48525834#8 -48525834#7 -48525834#6 -48525834#5 -48525943#2 460084103#1"/>
    </person>
    <person id="ped20" type="ped_pedestrian" depart="157.97">
        <walk edges="532618599#1 532618596#0 532618596#1 532618596#2 532618600#1 532618601 -48525834#1 -48525834#2 48525834#3 -48525834#4 -48525834#5 -48525834#6 -48525834#7 -48525834#8 -48525834#9 -48525834#10 -48525834#11 48525834#12 -48525834#13 -48525834#14 -545672785 -48526679#0 546213402 -466067427#3 466067428#3 466067428#2 466067428#1 466067430#0"/>
    </person>
    <person id="ped23" type="ped_pedestrian" depart="181.66">
        <walk edges="532618600#0 532618600#1 532618601 -48525834#1 -48525834#2 48525834#3 -48525834#4 -48525834#5 -48525834#6 -48525834#7 -48525834#8 -48525834#9 -48525834#10 -48525834#11 48525834#12 -466067422#5 -466067422#4 -466067422#3 466067422#2 466067422#1 545673182"/>
    </person>
    <person id="ped24" type="ped_pedestrian" depart="189.56">
        <walk edges="-530791148 532618599#1 532618596#0 532618596#1 532618596#2 532618600#1 532618601 -48525834#1 -48525834#2 48525834#3 -48525834#4 -48525834#5 -48525834#6 -48525834#7 -48525834#8 -48525834#9 -48525834#10 -48525834#11 48525834#12 -466067422#5 -466067422#4 546213397#0 546213396#1 546213396#2"/>
    </person>
    <person id="ped25" type="ped_pedestrian" depart="197.46">
        <walk edges="-530781077#1 530782140 530778853#1 530781078#1 466067421#0 466067421#1 466067423 466067422#1 466067422#2 466067449 466067448#0"/>
    </person>
    <person id="ped32" type="ped_pedestrian" depart="252.75">
        <walk edges="532618600#1 532618601 -48525834#1 -48525834#2 48525834#3 -48525834#4 -48525834#5 -48525834#6 -48525834#7 -48525834#8 -48525834#9 -48525834#10 -48525834#11 48525834#12 -48525834#13 -48525834#14 -545672785 -48526679#0 546213402 -466067427#3 466067428#3 466067428#2 466067429#1 466067429#0 -48525667#1 -48525667#2 -48525667#4 48525667#5"/>
    </person>
    <person id="ped35" type="ped_pedestrian" depart="276.44">
        <walk edges="530781078#0 530778853#1 530778853#0 -48525667#4 -48525667#2 -48525667#1 466067429#0 466067429#1 466067428#2 466067428#3 -466067427#3 546213402 -48526679#0 -545672785 -48525834#14 -48525834#13 48525834#12 -48525834#11 -48525834#10 -48525834#9 -48525834#8 -48525834#7 -545672782#2 -1290292255 -48525946#3 -48525946#2 -1270364161#0 1270364161#1"/>
    </person>
    <person id="ped38" type="ped_pedestrian" depart="300.14">
        <walk edges="-48525834#12 -48525834#11 -48525834#10 -545913063#1 545913063#0 545913071"/>
    </person>
    <person id="ped39" type="ped_pedestrian" depart="308.04">
        <walk edges="546213402 -48526679#0 -545672785 -48525834#14 -48525834#13 48525834#12 -48525834#11 -48525834#10 -48525834#9 -48525834#8 -48525834#7 -48525834#6 -48525834#5 -48525943#2 -48525943#1 48525951#5"/>
    </person>
    <person id="ped40" type="ped_pedestrian" depart="315.93">
        <walk edges="590772372 545913063#0 -545913063#1 -48525834#9 -48525834#8 -48525834#7 -48525834#6 -48525834#5 -48525834#4 48525834#3 -48525834#2 -48525834#1 532618601 532618600#1 530791151#0 530791148"/>
    </person>
    <person id="ped43" type="ped_pedestrian" depart="339.63">
        <walk edges="545913064 -590772370 -48525834#8 -48525834#7 -48525834#6 -48525834#5 -48525834#4 48525834#3 -48525834#2 -48525834#1 532618601 532618600#1 532618596#2 532618596#1 532618597#0"/>
    </person>
    <person id="ped45" type="ped_pedestrian" depart="355.43">
        <walk edges="-48525834#19 -48525834#18 48525834#17 48525834#16 -590551428 48526680"/>
    </person>
    <person id="ped46" type="ped_pedestrian" depart="363.32">
        <walk edges="466067429#1 466067428#2 466067428#3 -466067427#3 546213402 -48526679#0 -545672785 -48525834#15 -590551428 -48525992 -48525990#1 -590551422 -545913084 590551425#1 590551423"/>
    </person>
    <person id="ped48" type="ped_pedestrian" depart="379.12">
        <walk edges="48525946#3 -1290292255 -545672782#2 -48525834#7 -466067447#1 466067447#0 -590556999#0"/>
    </person>
    <person id="ped49" type="ped_pedestrian" depart="387.02">
        <walk edges="546219613 546218403#1 546218405#0 546218405#1"/>
    </person>
    <person id="ped52" type="ped_pedestrian" depart="410.72">
        <walk edges="546213397#0 -466067422#4 -466067422#5 48525834#12 -48525834#11 -48525834#10 -48525834#9 -48525834#8 -48525834#7 -48525834#6 -48525834#5 -48525834#4 48525834#3 -48525834#2 -48525834#1 532618601 532618600#1 532618596#2 532618596#1 532618597#0"/>
    </person>
    <person id="ped53" type="ped_pedestrian" depart="418.61">
        <walk edges="546213399#1 546213399#0 546213396#1 546213397#0 -466067422#4 -466067422#5 48525834#12 -48525834#11 -48525834#10 -48525834#9 -48525834#8 -48525834#7 -48525834#6 -48525834#5 -48525834#4 48525834#3 -48525834#2 -48525834#1 532618601 532618600#1 530791151#0 530791148"/>
    </person>
    <person id="ped56" type="ped_pedestrian" depart="442.31">
        <walk edges="546218403#2 546218403#1 546218405#0 546219609#1 546219609#0 546218393#1"/>
    </person>
    <person id="ped57" type="ped_pedestrian" depart="450.21">
        <walk edges="-590829848 -48525834#18 -48525722#2 -48525722#1 -48525667#0"/>
    </person>
    <person id="ped59" type="ped_pedestrian" depart="466.00">
        <walk edges="-460084103#3 -460084103#2 -460084103#1 -48525943#2 -48525834#5 -48525834#6 -48525834#7 -48525834#8 -48525834#9 -48525834#10 -48525834#11 48525834#12 -48525834#13 -48525834#14 -545672785 -48526679#0 546213402 -466067427#3 466067428#3 466067428#2 466067429#1 466067429#0 -48525667#1 -48525667#2 -48525667#4 530778853#0 530778853#1 530778853#2"/>
    </person>
    <person id="ped60" type="ped_pedestrian" depart="473.90">
        <walk edges="546213397#1 546213397#0 -466067422#4 -466067422#5 -48525834#13 -48525990#0 -590551422 -545913084 545913078#1 -545913078#0"/>
    </person>
    <person id="ped61" type="ped_pedestrian" depart="481.80">
        <walk edges="466067449 -466067448#1 -466067447#1 -48525834#7 -48525834#6 -48525834#5 -48525834#4 48525834#3 -48525834#2 -48525834#1 532618601 532618600#1 532618596#2 532618598#0"/>
    </person>
    <person id="ped64" type="ped_pedestrian" depart="505.50">
        <walk edges="530778853#1 530778853#0 -48525667#4 -48525667#2 -48525667#1 466067429#0 466067429#1 466067428#2 466067428#3 -466067427#3 546213402 -48526679#0 -545672169 546213400 546213399#0 546213396#2"/>
    </person>
    <person id="ped65" type="ped_pedestrian" depart="513.39">
        <walk edges="-545913071 545913071 545913063#0 -545913063#1 -48525834#10 -48525834#11 48525834#12 -466067422#5 -466067422#4 -466067422#3 466067422#2 466067422#1 466067423"/>
    </person>
    <person id="ped67" type="ped_pedestrian" depart="529.19">
        <walk edges="466067428#3 466067428#2 466067429#1 466067429#0 -48525667#1 -48525667#2 -48525667#4 530778853#0 530782140"/>
    </person>
    <person id="ped71" type="ped_pedestrian" depart="560.78">
        <walk edges="-545913087 545913060#1 -590772373#0 -590772373#1 590772372 545913063#0 -545913063#1 -48525834#10 -48525834#11 48525834#12 -48525834#13 -48525834#14 -545672785 -48526679#0 -48526679#1 -48526679#2 -547212110"/>
    </person>
    <person id="ped76" type="ped_pedestrian" depart="600.28">
        <walk edges="466067428#0 -466067427#1 -466067427#2 -466067427#3 546213402 -48526679#0 -545672785 -48525834#14 -48525834#13 48525834#12 -48525834#11 -48525834#10 -48525834#9 -48525834#8 -48525834#7 -48525834#6 -48525834#5 -48525943#2 -460084103#1 -460084103#2 -460084103#3 -530765264#1 530765264#2"/>
    </person>
    <person id="ped77" type="ped_pedestrian" depart="608.17">
        <walk edges="545913097#1 545913097#0"/>
    </person>
    <person id="ped78" type="ped_pedestrian" depart="616.07">
        <walk edges="466067423 466067422#1 466067422#2 -466067422#3 546213397#0 546213396#1 546213399#0 546213400 -545672169 -48526679#0 546213402 -466067427#3 466067428#3 466067428#2"/>
    </person>
    <person id="ped79" type="ped_pedestrian" depart="623.97">
        <walk edges="-545672704 466067422#2 -466067422#3 -466067422#4 -466067422#5 48525834#12 -48525834#11 -48525834#10 -48525834#9 -48525834#8 -48525834#7 -48525834#6 -48525834#5 -48525943#2 -460084103#1 -460084103#2 -460084103#3 -460084103#4 48525944#1 48525944#0 -4673206#1 525162458 -525162459#2 525162459#3"/>
    </person>
    <person id="ped80" type="ped_pedestrian" depart="631.87">
        <walk edges="466067428#0 -466067427#1 -466067427#2 -466067427#3 546213402 -48526679#0 -545672785 -48525834#14 -48525834#13 48525834#12 -48525834#11 -48525834#10 -48525834#9 -48525834#8 -48525834#7 -48525834#6 -48525834#5 -48525943#2 -460084103#1 -460084103#2 460084103#3"/>
    </person>
    <person id="ped81" type="ped_pedestrian" depart="639.77">
        <walk edges="-547212110 -48526679#2 -48526679#1 -48526679#0 -545672169 546213400 546213399#0 546213396#1 546213397#0 -466067422#3 466067422#2 466067422#1 466067423 466067421#1 547214713"/>
    </person>
    <person id="ped87" type="ped_pedestrian" depart="687.16">
        <walk edges="466067423 466067421#1 466067421#0 530781078#1 530778853#1 530778853#0 -48525667#4"/>
    </person>
    <person id="ped89" type="ped_pedestrian" depart="702.95">
        <walk edges="466067429#1 466067428#2 466067428#3 -466067427#3 546213402 -48526679#0 -545672785 -48525834#14 -48525834#13 48525834#12 -48525834#11 -48525834#10 -48525834#9 -48525834#8 -48525834#7 -48525834#6 -48525834#5 -48525943#2 -48525943#1 48525951#5"/>
    </person>
    <person id="ped90" type="ped_pedestrian" depart="710.85">
        <walk edges="530781077#0 -530781077#0 530782140 530778853#0 -48525667#4 -48525667#2 -48525667#1 466067429#0 466067429#1 466067428#2 466067428#3 -466067427#3 546213402 -48526679#0 -545672169 546213400 546213399#0 546213396#1 546213396#0"/>
    </person>
    <person id="ped91" type="ped_pedestrian" depart="718.75">
        <walk edges="-530765264#0 -460084103#3 -460084103#2 -460084103#1 -48525943#2 -48525834#5 -48525834#6 -48525834#7 -48525834#8 -48525834#9 -48525834#10 -48525834#11 48525834#12 -466067422#5 -466067422#4 -466067422#3 466067422#2 466067422#1 466067423 466067421#2"/>
    </person>
    <person id="ped93" type="ped_pedestrian" depart="734.55">
        <walk edges="530778853#1 530778853#0 -48525667#4 -48525667#2 -48525667#1 466067429#0 466067429#1 466067428#2 466067428#3 -466067427#3 546213402 -48526679#0 -545672169 546213400 546213399#0"/>
    </person>
    <person id="ped95" type="ped_pedestrian" depart="750.34">
        <walk edges="-530765264#2 -48525951#2 -48525951#3 -48525951#4 -48525943#0 -48525946#1 -48525946#2 -48525946#3 -48525946#4 48525989#0 -48525989#1 590551426#1 590551426#0 590551427#1 590556998"/>
    </person>
    <person id="ped97" type="ped_pedestrian" depart="766.14">
        <walk edges="-545913105#1 545913099#1 545913101 545913108#1 -545913108#0 -48525834#10 -545913063#1 545913063#0 590772372 -590772373#1 -590772373#0 -545913060#0"/>
    </person>
    <person id="ped98" type="ped_pedestrian" depart="774.04">
        <walk edges="530791143#0 48525834#3 -48525834#4 -48525834#5 -48525834#6 -48525834#7 -48525834#8 -590772370 545913065 -545913066#1 -545913066#2 -545913066#3 -545913066#4 -590772373#0 545913060#1"/>
    </person>
    <person id="ped99" type="ped_pedestrian" depart="781.94">
        <walk edges="466067428#0 -466067427#1 -466067427#2 -466067427#3 546213402 -48526679#0 -545672785 -48525834#14 -48525834#13 48525834#12 -48525834#11 -48525834#10 -48525834#9 -48525834#8 -48525834#7 -48525834#6 -48525834#5 -48525834#4 48525834#3 -48525834#2 -48525834#1 532618601 532618600#1 532618600#0"/>
    </person>
    <person id="ped101" type="ped_pedestrian" depart="797.73">
        <walk edges="-545913071 545913071 545913063#0 -545913063#1 -48525834#10 -48525834#11 48525834#12 -466067422#5 -466067422#4 546213397#0 546213396#0"/>
    </person>
    <person id="ped102" type="ped_pedestrian" depart="805.63">
        <walk edges="-545913105#1 -545913105#0 -466067422#5 -48525834#13 -48525834#14 -545672785 -48526679#0 546213402 -466067427#3 466067428#3 466067428#2 466067429#1 466067429#0 -48525667#1 -48525667#2 -48525667#4 48525667#5"/>
    </person>
    <person id="ped103" type="ped_pedestrian" depart="813.53">
        <walk edges="545672170 48526680 -590551428 -48525834#15 -48525834#14 -48525834#13 -466067422#5 -466067422#4 -466067422#3 466067422#2 466067422#1 -545673182 466067421#3"/>
    </person>
    <person id="ped104" type="ped_pedestrian" depart="821.43">
        <walk edges="-1270364161#1 -1270364161#0 -48525946#1 -48525943#0 -48525951#4 -530765260#1 -460084103#2 530765262#2"/>
    </person>
    <person id="ped106" type="ped_pedestrian" depart="837.23">
        <walk edges="-557684193 557684193"/>
    </person>
    <person id="ped107" type="ped_pedestrian" depart="845.13">
        <walk edges="546218403#2 546218403#1 546218405#0 546219609#1"/>
    </person>
    <person id="ped114" type="ped_pedestrian" depart="900.41">
        <walk edges="-48525667#5 -48525667#4 -48525667#2 -48525667#1 466067429#0 466067429#1 466067428#2 466067428#3 -466067427#3 546213402 -48526679#0 -545672785 -48525834#14 -48525834#13 48525834#12 -48525834#11 -48525834#10 -48525834#9 -48525834#8 -48525834#7 -48525834#6 -48525834#5 -48525834#4 48525834#3 -48525834#2 -48525834#1 532618601 532618600#1 532618596#2 532618598#0"/>
    </person>
    <person id="ped117" type="ped_pedestrian" depart="924.11">
        <walk edges="532618599#0 532618599#1 532618596#0 532618596#1 532618596#2 532618600#1 532618601 -48525834#1 -460084104 48525945#0 48525945#1 530770487#1 -48525946#0 -48525946#1 -1270364161#0 1290292256"/>
    </person>
    <person id="ped120" type="ped_pedestrian" depart="947.80">
        <walk edges="466067428#0 -466067427#1 -466067427#2 -466067427#3 546213402 -48526679#0 -545672785 -48525834#14 -48525834#13 48525834#12 -48525834#11 -48525834#10 -48525834#9 -48525834#8 -48525834#7 -48525834#6 -48525834#5 -48525943#2 -460084103#1 -460084103#2 -460084103#3 -530765264#1 -48525951#1 48525945#1 530770487#0 48525948#1 48525948#2 530770489 530770488 460084099"/>
    </person>
    <person id="ped122" type="ped_pedestrian" depart="963.60">
        <walk edges="532618599#1 532618596#0 532618596#1 532618596#2 532618600#1 532618601 -48525834#1 -460084104 48525945#0 48525945#1 530770487#1 -48525946#0 -48525946#1 -1270364161#0 1270364161#1"/>
    </person>
    <person id="ped123" type="ped_pedestrian" depart="971.50">
        <walk edges="546213396#0 546213397#0 -466067422#4 -466067422#5 48525834#12 -48525834#11 -48525834#10 -48525834#9 -48525834#8 -48525834#7 -48525834#6 -48525834#5 -48525834#4 48525834#3 -48525834#2 -48525834#1 532618601 532618600#1 532618596#2 532618598#0"/>
    </person>
    <person id="ped127" type="ped_pedestrian" depart="1003.09">
        <walk edges="-530765262#0 -530765262#1 -460084103#2 -460084103#1 -48525943#2 -48525834#5 -48525834#6 -48525834#7 -48525834#8 -48525834#9 -545913063#1 545913063#0 545913071 -545913071"/>
    </person>
    <person id="ped131" type="ped_pedestrian" depart="1034.69">
        <walk edges="-547212110 -48526679#2 -48526679#1 -48526679#0 -545672785 -48525834#14 -48525834#13 48525834#12 -48525834#11 -48525834#10 -48525834#9 -48525834#8 -48525834#7 -48525834#6 -48525834#5 -48525834#4 48525834#3 -48525834#2 -48525834#1 532618601 532618600#1 532618596#2 532618596#1 532618596#0 532618599#1 -530791148"/>
    </person>
    <person id="ped133" type="ped_pedestrian" depart="1050.48">
        <walk edges="466067426#0 466067426#1 -48526679#2 -48526679#1 -48526679#0 -545672785 -48525834#14 -48525834#13 48525834#12 -48525834#11 -48525834#10 -545913063#1 545913063#0"/>
    </person>
    <person id="ped141" type="ped_pedestrian" depart="1113.67">
        <walk edges="546213400 546213399#0 546213396#1 546213397#0 -466067422#4 -466067422#5 48525834#12 -48525834#11 -48525834#10 -48525834#9 -48525834#8 -48525834#7 -48525834#6 -48525834#5 -48525834#4 48525834#3 -48525834#2 -48525834#1 532618601 532618600#1 532618596#2 532618596#1 -532618596#0"/>
    </person>
    <person id="ped142" type="ped_pedestrian" depart="1121.57">
        <walk edges="546218403#1 546218403#2"/>
    </person>
    <person id="ped144" type="ped_pedestrian" depart="1137.36">
        <walk edges="466067430#0 466067428#1 466067428#2 466067428#3 -466067427#3 546213402 -48526679#0 -545672169 546213400 546213399#0 546213396#1 546213397#0 -466067422#3 466067422#2 466067422#1"/>
    </person>
    <person id="ped148" type="ped_pedestrian" depart="1168.96">
        <walk edges="532618599#2 532618596#0 532618596#1 532618596#2 532618600#1 532618601 -48525834#1 -48525834#2 48525834#3 -48525834#4 -48525834#5 -48525834#6 -48525834#7 -48525834#8 -48525834#9 -48525834#10 -48525834#11 48525834#12 -48525834#13 -48525834#14 -545672785 -48526679#0 546213402 -466067427#3 466067428#3 466067428#2 466067429#1 466067429#0 -48525667#1 -48525667#2 -48525667#4 48525667#5"/>
    </person>
    <person id="ped152" type="ped_pedestrian" depart="1200.55">
        <walk edges="557684003#0 466067427#0 -466067427#1 -466067427#2 -466067427#3 546213402 -48526679#0 -545672785 -48525834#14 -48525834#13 48525834#12 -48525834#11 -48525834#10 -48525834#9 -48525834#8 -48525834#7 -545672782#2 -1290292255 -48525946#3 -48525946#2 -1270364161#0 1290292256"/>
    </person>
    <person id="ped153" type="ped_pedestrian" depart="1208.45">
        <walk edges="-48525727 48525834#16 -590551428 48526680"/>
    </person>
    <person id="ped155" type="ped_pedestrian" depart="1224.25">
        <walk edges="532618597#0 532618596#1 532618596#2 532618600#1 532618601 -48525834#1 -48525834#2 48525834#3 -48525834#4 -48525834#5 -48525834#6 -48525834#7 -48525834#8 -48525834#9 -48525834#10 -48525834#11 48525834#12 -466067422#5 -466067422#4 -466067422#3 466067422#2 466067422#1 466067423 466067421#1 466067421#0 530781078#2"/>
    </person>
    <person id="ped156" type="ped_pedestrian" depart="1232.15">
        <walk edges="466067421#3 -545673182 466067422#1 466067422#2 -466067422#3 -466067422#4 -466067422#5 48525834#12 -48525834#11 -48525834#10 -48525834#9 -48525834#8 -48525834#7 -48525834#6 -48525834#5 -48525834#4 48525834#3 -48525834#2 -48525834#1 532618601 532618600#1 532618596#2 532618596#1 532618596#0 532618599#2"/>
    </person>
    <person id="ped157" type="ped_pedestrian" depart="1240.04">
        <walk edges="-547214713 466067421#1 466067423 466067422#1 466067422#2 -466067422#3 -466067422#4 -545913105#0 545913099#1 545913101 545913108#2"/>
    </person>
    <person id="ped159" type="ped_pedestrian" depart="1255.84">
        <walk edges="530778853#1 530778853#0 -48525667#4 -48525667#2 -48525667#1 466067429#0 466067429#1 466067428#2 466067428#3 -466067427#3 546213402 -48526679#0 -545672169 546213400 546213399#0 546213396#1 546213396#0"/>
    </person>
    <person id="ped162" type="ped_pedestrian" depart="1279.54">
        <walk edges="545672167#0 -545672169 -48526679#0 546213402 -466067427#3 -466067427#2 -466067427#1 466067428#0"/>
    </person>
    <person id="ped165" type="ped_pedestrian" depart="1303.23">
        <walk edges="-590829848 48525834#19"/>
    </person>
    <person id="ped166" type="ped_pedestrian" depart="1311.13">
        <walk edges="466067423 466067421#2"/>
    </person>
    <person id="ped167" type="ped_pedestrian" depart="1319.03">
        <walk edges="-48525951#5 48525951#5"/>
    </person>
    <person id="ped170" type="ped_pedestrian" depart="1342.72">
        <walk edges="-590829847 -48525667#1 466067429#0 466067429#1 466067428#2 466067428#3 -466067427#3 546213402 -48526679#0 -545672785 -48525834#14 -48525834#13 48525834#12 -48525834#11 -48525834#10 -48525834#9 -48525834#8 -48525834#7 -48525834#6 -48525834#5 -48525834#4 48525834#3 -48525834#2 -48525834#1 532618601 532618600#1 532618596#2 532618596#1 532618597#1"/>
    </person>
    <person id="ped172" type="ped_pedestrian" depart="1358.52">
        <walk edges="466067428#1 466067428#2 466067428#3 -466067427#3 546213402 -48526679#0 -545672785 -48525834#14 -48525834#13 48525834#12 -48525834#11 -48525834#10 -48525834#9 -48525834#8 -48525834#7 -48525834#6 -48525834#5 -48525834#4 48525834#3 -48525834#2 -48525834#1 532618601 532618600#1 532618596#2 532618596#1 532618596#0 532618599#2"/>
    </person>
    <person id="ped173" type="ped_pedestrian" depart="1366.42">
        <walk edges="532618600#1 532618601 -48525834#1 -460084104 48525945#0 -48525951#1 530765264#2"/>
    </person>
    <person id="ped176" type="ped_pedestrian" depart="1390.11">
        <walk edges="-460084103#0 -48525943#2 -48525834#5 -48525834#6 -48525834#7 -48525834#8 -48525834#9 -48525834#10 -48525834#11 48525834#12 -48525834#13 -48525834#14 -545672785 -48526679#0 546213402 -466067427#3 466067428#3 466067428#2 466067429#1 466067429#0 -48525667#1 -48525667#2 -48525667#4 530778853#0 530782140"/>
    </person>
    <person id="ped177" type="ped_pedestrian" depart="1398.01">
        <walk edges="532618599#0 532618599#1 532618596#0 532618596#1 532618596#2 532618600#1 532618601 -48525834#1 -48525834#2 48525834#3 -48525834#4 -48525834#5 -48525834#6 -48525834#7 -48525834#8 -48525834#9 -48525834#10 -48525834#11 48525834#12 -48525834#13 -48525834#14 -545672785 -48526679#0 546213402 -466067427#3 466067428#3 466067428#2 466067428#1"/>
    </person>
    <person id="ped179" type="ped_pedestrian" depart="1413.81">
        <walk edges="-545913066#2 -545913066#1 545913065 -590772370 -48525834#8 -48525834#7 -48525834#6 -48525834#5 -48525943#2 -460084103#0"/>
    </person>
    <person id="ped180" type="ped_pedestrian" depart="1421.71">
        <walk edges="-545913108#2 545913101 545913099#1 -545913105#0 -466067422#5 -48525834#13 -48525834#14 -545672785 -48526679#0 546213402 -466067427#3 466067428#3 466067428#2 466067429#1 466067429#0 -48525667#1 -48525667#2 -48525667#4 530778853#0"/>
    </person>
    <person id="ped182" type="ped_pedestrian" depart="1437.50">
        <walk edges="466067426#1 -48526679#2 -48526679#1 -48526679#0 -545672785 -48525834#14 -48525834#13 48525834#12 -48525834#11 -48525834#10 -48525834#9 -590772370 545913065 -545913066#1 545913073"/>
    </person>
    <person id="ped183" type="ped_pedestrian" depart="1445.40">
        <walk edges="-545673182 466067422#1 466067422#2 -466067422#3 -466067422#4 -545913105#0 545913099#1 545913101 545913108#1 545913104"/>
    </person>
    <person id="ped184" type="ped_pedestrian" depart="1453.30">
        <walk edges="546213396#2 546213399#0 546213400 -545672169 -48526679#0 546213402"/>
    </person>
    <person id="ped185" type="ped_pedestrian" depart="1461.20">
        <walk edges="-48525667#5 -48525667#4 -48525667#2 -48525667#1 466067429#0 466067429#1 466067428#2 466067428#3 -466067427#3 546213402 -48526679#0 -545672785 -48525834#14 -48525834#13 48525834#12 -48525834#11 -48525834#10 -48525834#9 -48525834#8 -48525834#7 -48525834#6 -48525834#5 -48525943#2 -48525943#1 48525951#5"/>
    </person>
    <person id="ped186" type="ped_pedestrian" depart="1469.10">
        <walk edges="-530791151#1 530791151#0 532618600#1 532618601 -48525834#1 -48525834#2 48525834#3 -48525834#4 -48525834#5 -48525834#6 -545672782#2 -545672782#1 48525989#0 -48525989#1 590551426#1"/>
    </person>
    <person id="ped189" type="ped_pedestrian" depart="1492.79">
        <walk edges="466067430#0 466067428#1 466067428#2 466067428#3 -466067427#3 466067427#4 -48526679#2 466067426#1 546213407"/>
    </person>
    <person id="ped195" type="ped_pedestrian" depart="1540.18">
        <walk edges="466067449 -466067448#1 -466067447#1 -48525834#7 -545672782#2 -1290292255 -48525946#3 -48525946#2 -1270364161#0 1270364161#1"/>
    </person>
    <person id="ped197" type="ped_pedestrian" depart="1555.98">
        <walk edges="546213397#1 546213396#1 546213399#0 546213400 -545672169 -48526679#0 546213402 -466067427#3 466067428#3 466067428#2 466067429#1 466067429#0 -48525667#1 -48525667#2 -48525667#4 530778853#0 530782140"/>
    </person>
    <person id="ped198" type="ped_pedestrian" depart="1563.88">
        <walk edges="532618598#1 532618596#2 532618600#1 532618601 -48525834#1 -48525834#2 48525834#3 344892996"/>
    </person>
    <person id="ped199" type="ped_pedestrian" depart="1571.77">
        <walk edges="-1270364161#1 -1270364161#0 -48525946#2 -48525946#3 -1290292255 -545672782#2 -48525834#7 -48525834#8 -48525834#9 -48525834#10 -48525834#11 48525834#12 -466067422#5 -466067422#4 -466067422#3 466067422#2 466067422#1 466067423 466067421#1 466067421#0"/>
    </person>
    <person id="ped201" type="ped_pedestrian" depart="1587.57">
        <walk edges="530778853#1 530781078#1 466067421#0 -547214713"/>
    </person>
    <person id="ped202" type="ped_pedestrian" depart="1595.47">
        <walk edges="-545913104 545913108#1 545913101 545913099#2"/>
    </person>
    <person id="ped204" type="ped_pedestrian" depart="1611.27">
        <walk edges="466067426#0 466067426#1 -48526679#2 -48526679#1 -48526679#0 -545672785 -48525834#14 -48525834#13 48525834#12 -48525834#11 -48525834#10 -48525834#9 -48525834#8 -48525834#7 -48525834#6 -48525834#5 -48525834#4 48525834#3 -48525834#2 -48525834#1 532618601 532618600#1 532618596#2 532618596#1 532618597#0"/>
    </person>