<?xml version="1.0" encoding="UTF-8"?>

<!-- generated on 2025-03-15 18:30:56.850217 by osmWebWizard.py v1_22_0+0002-63e50f52594
<configuration>
    <net-file value="C:\Users\user\Sumo\2025-03-15-18-30-05\osm.net.xml.gz"/>
    <output-trip-file value="C:\Users\user\Sumo\2025-03-15-18-30-05\osm.bus.trips.xml"/>
    <route-file value="C:\Users\user\Sumo\2025-03-15-18-30-05\osm.bus.rou.xml"/>
    <prefix value="bus"/>
    <trip-attributes value="departLane=&quot;best&quot;"/>
    <fringe-start-attributes value="departSpeed=&quot;max&quot;"/>
    <vehicle-class value="bus"/>
    <fringe-factor value="5"/>
    <vclass value="bus"/>
    <via-edge-types value="highway.motorway,highway.motorway_link,highway.trunk_link,highway.primary_link,highway.secondary_link,highway.tertiary_link"/>
    <min-distance value="600.0"/>
    <min-distance.fringe value="10.0"/>
    <remove-loops value="True"/>
    <validate value="True"/>
    <insertion-density value="4.4"/>
</configuration>
-->

<!-- generated on 2025-03-15 18:30:55 by Eclipse SUMO duarouter Version 1.22.0
<duarouterConfiguration xmlns:xsi="http://www.w3.org/2001/XMLSchema-instance" xsi:noNamespaceSchemaLocation="http://sumo.dlr.de/xsd/duarouterConfiguration.xsd">

    <input>
        <net-file value="C:\Users\user\Sumo\2025-03-15-18-30-05\osm.net.xml.gz"/>
        <route-files value="C:\Users\user\Sumo\2025-03-15-18-30-05\osm.bus.trips.xml"/>
    </input>

    <output>
        <output-file value="C:\Users\user\Sumo\2025-03-15-18-30-05\osm.bus.trips.xml.tmp"/>
        <alternatives-output value="NUL"/>
        <write-trips value="true"/>
    </output>

    <processing>
        <remove-loops value="true"/>
    </processing>

    <time>
        <begin value="0.0"/>
        <end value="3600.0"/>
    </time>

    <report>
        <no-warnings value="true"/>
        <ignore-errors value="true"/>
        <no-step-log value="true"/>
    </report>

</duarouterConfiguration>
-->

<routes xmlns:xsi="http://www.w3.org/2001/XMLSchema-instance" xsi:noNamespaceSchemaLocation="http://sumo.dlr.de/xsd/routes_file.xsd">
    <vType id="bus_bus" vClass="bus"/>
    <trip id="bus0" type="bus_bus" depart="0.00" departLane="best" departSpeed="max" from="20550149" to="-13986777#0"/>
    <trip id="bus1" type="bus_bus" depart="2.51" departLane="best" from="-466067452" to="-4709182#7"/>
    <trip id="bus2" type="bus_bus" depart="5.03" departLane="best" from="460117241#2" to="435496780#1"/>
    <trip id="bus3" type="bus_bus" depart="7.54" departLane="best" from="580528155#2" to="-20550138#0"/>
    <trip id="bus4" type="bus_bus" depart="10.05" departLane="best" departSpeed="max" from="-580528153" to="-13986807#0"/>
    <trip id="bus5" type="bus_bus" depart="12.57" departLane="best" from="-435495852#1" to="13987470#4"/>
    <trip id="bus6" type="bus_bus" depart="15.08" departLane="best" from="-13984262#2" to="460775412#1"/>
    <trip id="bus7" type="bus_bus" depart="17.59" departLane="best" from="-20551341#2" to="20548876#0"/>
    <trip id="bus8" type="bus_bus" depart="20.11" departLane="best" from="-435495853#2" to="20551342"/>
    <trip id="bus9" type="bus_bus" depart="22.62" departLane="best" from="4717313#1" to="-1190768693"/>
    <trip id="bus10" type="bus_bus" depart="25.13" departLane="best" from="4709236#1" to="460117241#3"/>
    <trip id="bus11" type="bus_bus" depart="27.65" departLane="best" from="-4750841#7" to="-435134246"/>
    <trip id="bus12" type="bus_bus" depart="30.16" departLane="best" from="608660846#1" to="-579252758#0"/>
    <trip id="bus13" type="bus_bus" depart="32.67" departLane="best" from="-20548866#18" to="-20550161#0"/>
    <trip id="bus14" type="bus_bus" depart="35.19" departLane="best" from="-49326655#7" to="390204453#1"/>
    <trip id="bus15" type="bus_bus" depart="37.70" departLane="best" from="4709237#1" to="4709119"/>
    <trip id="bus16" type="bus_bus" depart="40.21" departLane="best" from="958035015#3" to="770918052"/>
    <trip id="bus17" type="bus_bus" depart="42.73" departLane="best" from="-49326656#3" to="20548887#0"/>
    <trip id="bus18" type="bus_bus" depart="45.24" departLane="best" from="4750861#4" to="390597012"/>
    <trip id="bus19" type="bus_bus" depart="47.75" departLane="best" departSpeed="max" from="49326676#0" to="20550156#1"/>
    <trip id="bus20" type="bus_bus" depart="50.27" departLane="best" from="435134262#0" to="-13987833#2"/>
    <trip id="bus22" type="bus_bus" depart="55.29" departLane="best" from="-20547020#6" to="-4709198#11"/>
    <trip id="bus23" type="bus_bus" depart="57.81" departLane="best" departSpeed="max" from="-20548881#2" to="-4750853#1"/>
    <trip id="bus24" type="bus_bus" depart="60.32" departLane="best" from="20550138#1" to="-590456070"/>
    <trip id="bus25" type="bus_bus" depart="62.83" departLane="best" from="-48526995#0" to="466067442#2"/>
    <trip id="bus26" type="bus_bus" depart="65.34" departLane="best" from="-4648552#5" to="592155948#4"/>
    <trip id="bus27" type="bus_bus" depart="67.86" departLane="best" departSpeed="max" from="20550164#0" to="390204459#9"/>
    <trip id="bus28" type="bus_bus" depart="70.37" departLane="best" departSpeed="max" from="-390597012" to="4693412#7"/>
    <trip id="bus29" type="bus_bus" depart="72.88" departLane="best" from="958035013#9" to="428066248#2"/>
    <trip id="bus30" type="bus_bus" depart="75.40" departLane="best" departSpeed="max" from="1365758905" to="435512535"/>
    <trip id="bus31" type="bus_bus" depart="77.91" departLane="best" departSpeed="max" from="49326651" to="4717288#2"/>
    <trip id="bus32" type="bus_bus" depart="80.42" departLane="best" from="435512521#0" to="-13987457"/>
    <trip id="bus33" type="bus_bus" depart="82.94" departLane="best" departSpeed="max" from="-435134259" to="592369191"/>
    <trip id="bus35" type="bus_bus" depart="87.96" departLane="best" departSpeed="max" from="329894574#0" to="592369191"/>
    <trip id="bus36" type="bus_bus" depart="90.48" departLane="best" departSpeed="max" from="590526260#0" to="1191694846"/>
    <trip id="bus37" type="bus_bus" depart="92.99" departLane="best" from="-4648281#1" to="4709225#2"/>
    <trip id="bus38" type="bus_bus" depart="95.50" departLane="best" from="13985249" to="4717321#1"/>
    <trip id="bus39" type="bus_bus" depart="98.02" departLane="best" from="13987463#5" to="590232064"/>
    <trip id="bus40" type="bus_bus" depart="100.53" departLane="best" from="49326898" to="-4709170#0"/>
    <trip id="bus41" type="bus_bus" depart="103.04" departLane="best" departSpeed="max" from="991854952" to="13987738#1"/>
    <trip id="bus42" type="bus_bus" depart="105.56" departLane="best" from="20548866#0" to="-157837955#3"/>
    <trip id="bus43" type="bus_bus" depart="108.07" departLane="best" from="-20549419#0" to="427818586"/>
    <trip id="bus44" type="bus_bus" depart="110.58" departLane="best" from="4709216#7" to="-770918056"/>
    <trip id="bus45" type="bus_bus" depart="113.10" departLane="best" departSpeed="max" from="991157802" to="20547025"/>
    <trip id="bus46" type="bus_bus" depart="115.61" departLane="best" departSpeed="max" from="770918055#0" to="577185246#0"/>
    <trip id="bus47" type="bus_bus" depart="118.12" departLane="best" departSpeed="max" from="-1220178763" to="466067434"/>
    <trip id="bus48" type="bus_bus" depart="120.64" departLane="best" from="427821318#0" to="20547037"/>
    <trip id="bus49" type="bus_bus" depart="123.15" departLane="best" from="-4648552#4" to="-428066259#1"/>
    <trip id="bus50" type="bus_bus" depart="125.66" departLane="best" departSpeed="max" from="-20549422#1" to="-955778450#2"/>
    <trip id="bus51" type="bus_bus" depart="128.18" departLane="best" departSpeed="max" from="-590526264#2" to="-60659681#3"/>
    <trip id="bus52" type="bus_bus" depart="130.69" departLane="best" from="518018242#0" to="-4717324"/>
    <trip id="bus53" type="bus_bus" depart="133.20" departLane="best" from="-60659681#0" to="4420669#15"/>
    <trip id="bus54" type="bus_bus" depart="135.72" departLane="best" from="590456072#0" to="579323357"/>
    <trip id="bus55" type="bus_bus" depart="138.23" departLane="best" from="4709200#1" to="428066247#2"/>
    <trip id="bus56" type="bus_bus" depart="140.74" departLane="best" from="-20547034" to="-435134241"/>
    <trip id="bus57" type="bus_bus" depart="143.26" departLane="best" departSpeed="max" from="4693394#0" to="20548866#11"/>
    <trip id="bus58" type="bus_bus" depart="145.77" departLane="best" from="-4709191#3" to="20547026#1"/>
    <trip id="bus59" type="bus_bus" depart="148.28" departLane="best" from="1011078576#2" to="-50599054#0"/>
    <trip id="bus60" type="bus_bus" depart="150.80" departLane="best" departSpeed="max" from="-1306541375" to="592104301"/>
    <trip id="bus61" type="bus_bus" depart="153.31" departLane="best" from="577205597#1" to="-49326658#4"/>
    <trip id="bus62" type="bus_bus" depart="155.82" departLane="best" departSpeed="max" from="-4709217#2" to="-20547022"/>
    <trip id="bus63" type="bus_bus" depart="158.34" departLane="best" from="577185246#0" to="592377333"/>
    <trip id="bus64" type="bus_bus" depart="160.85" departLane="best" from="-20547032#0" to="13985264#3"/>
    <trip id="bus65" type="bus_bus" depart="163.36" departLane="best" from="-157837955#1" to="4709219#1"/>
    <trip id="bus66" type="bus_bus" depart="165.88" departLane="best" from="4693447#0" to="-402177029#0"/>
    <trip id="bus68" type="bus_bus" depart="170.90" departLane="best" from="-4648281#2" to="580472451#2"/>
    <trip id="bus69" type="bus_bus" depart="173.42" departLane="best" departSpeed="max" from="-580534810#1" to="-4693394#0"/>
    <trip id="bus70" type="bus_bus" depart="175.93" departLane="best" from="-987818673#0" to="4709119"/>
    <trip id="bus71" type="bus_bus" depart="178.44" departLane="best" from="-428076711#2" to="49326667#1"/>
    <trip id="bus72" type="bus_bus" depart="180.96" departLane="best" departSpeed="max" from="991157800" to="428076711#2"/>
    <trip id="bus73" type="bus_bus" depart="183.47" departLane="best" departSpeed="max" from="-588685690" to="157837955#5"/>
    <trip id="bus74" type="bus_bus" depart="185.98" departLane="best" from="20549433#6" to="-4709186#2"/>
    <trip id="bus75" type="bus_bus" depart="188.50" departLane="best" from="-432772692" to="20551341#3"/>
    <trip id="bus76" type="bus_bus" depart="191.01" departLane="best" from="-435512523#0" to="-4709171#0"/>
    <trip id="bus77" type="bus_bus" depart="193.52" departLane="best" from="-435512521#0" to="590526264#2"/>
    <trip id="bus78" type="bus_bus" depart="196.03" departLane="best" from="49326670#2" to="-20548882#0"/>
    <trip id="bus79" type="bus_bus" depart="198.55" departLane="best" from="-4420669#10" to="435495856#1"/>
    <trip id="bus80" type="bus_bus" depart="201.06" departLane="best" departSpeed="max" from="-435134262#1" to="-427818592"/>
    <trip id="bus81" type="bus_bus" depart="203.57" departLane="best" from="-591859643" to="20550138#1"/>
    <trip id="bus82" type="bus_bus" depart="206.09" departLane="best" from="591858961#2" to="-4750828#1"/>
    <trip id="bus83" type="bus_bus" depart="208.60" departLane="best" from="-4717287#0" to="460117246#7"/>
    <trip id="bus84" type="bus_bus" depart="211.11" departLane="best" departSpeed="max" from="-20548875#2" to="779414602#5"/>
    <trip id="bus85" type="bus_bus" depart="213.63" departLane="best" departSpeed="max" from="-580534810#1" to="1236767281"/>
    <trip id="bus86" type="bus_bus" depart="216.14" departLane="best" from="4420669#15" to="435496777#1"/>
    <trip id="bus87" type="bus_bus" depart="218.65" departLane="best" from="955778450#0" to="-20548866#1"/>
    <trip id="bus88" type="bus_bus" depart="221.17" departLane="best" from="-49326911#0" to="-579273613"/>
    <trip id="bus89" type="bus_bus" depart="223.68" departLane="best" departSpeed="max" from="49326676#0" to="-4709227#0"/>
    <trip id="bus90" type="bus_bus" depart="226.19" departLane="best" departSpeed="max" from="-428066247#2" to="-995158081"/>
    <trip id="bus91" type="bus_bus" depart="228.71" departLane="best" departSpeed="max" from="-580528153" to="-4750853#3"/>
    <trip id="bus92" type="bus_bus" depart="231.22" departLane="best" from="460117244#1" to="591007469#1"/>
    <trip id="bus93" type="bus_bus" depart="233.73" departLane="best" departSpeed="max" from="-588742835" to="-577205597#0"/>
    <trip id="bus94" type="bus_bus" depart="236.25" departLane="best" departSpeed="max" from="1189288854" to="-157837960"/>
    <trip id="bus95" type="bus_bus" depart="238.76" departLane="best" departSpeed="max" from="995158081" to="49326663#0"/>
    <trip id="bus96" type="bus_bus" depart="241.27" departLane="best" from="-757646636#5" to="591858961#4"/>
    <trip id="bus97" type="bus_bus" depart="243.79" departLane="best" from="49326656#5" to="-435496778#0"/>
    <trip id="bus98" type="bus_bus" depart="246.30" departLane="best" from="-592336333#2" to="-4693394#5"/>
    <trip id="bus99" type="bus_bus" depart="248.81" departLane="best" from="-49326901#2" to="-20547025"/>
    <trip id="bus100" type="bus_bus" depart="251.33" departLane="best" from="-49326656#5" to="958033451"/>
    <trip id="bus101" type="bus_bus" depart="253.84" departLane="best" from="-4648281#2" to="4740622"/>
    <trip id="bus102" type="bus_bus" depart="256.35" departLane="best" departSpeed="max" from="-590526266#2" to="-770918057"/>
    <trip id="bus103" type="bus_bus" depart="258.87" departLane="best" from="608660846#1" to="991157799"/>
    <trip id="bus104" type="bus_bus" depart="261.38" departLane="best" from="1331842465#1" to="-465267600#3"/>
    <trip id="bus106" type="bus_bus" depart="266.41" departLane="best" from="-757646636#4" to="20550157#2"/>
    <trip id="bus107" type="bus_bus" depart="268.92" departLane="best" departSpeed="max" from="-991157799" to="4709201#2"/>
    <trip id="bus108" type="bus_bus" depart="271.43" departLane="best" from="-13987470#1" to="-20551337#0"/>
    <trip id="bus109" type="bus_bus" depart="273.95" departLane="best" from="-390204455#0" to="699916870#2"/>
    <trip id="bus110" type="bus_bus" depart="276.46" departLane="best" from="-20547021#0" to="-460117241#2"/>
    <trip id="bus111" type="bus_bus" depart="278.97" departLane="best" from="157837955#4" to="435496779#1"/>
    <trip id="bus112" type="bus_bus" depart="281.49" departLane="best" departSpeed="max" from="-435512533#1" to="-390581196#1"/>
    <trip id="bus113" type="bus_bus" depart="284.00" departLane="best" from="579323358#1" to="-4709225#0"/>
    <trip id="bus114" type="bus_bus" depart="286.51" departLane="best" from="157837955#2" to="-49326913#5"/>
    <trip id="bus115" type="bus_bus" depart="289.03" departLane="best" from="-579323358#1" to="20550164#3"/>
    <trip id="bus116" type="bus_bus" depart="291.54" departLane="best" from="-772445111#0" to="592137663#3"/>
    <trip id="bus117" type="bus_bus" depart="294.05" departLane="best" from="-428080107" to="4648281#4"/>
    <trip id="bus118" type="bus_bus" depart="296.57" departLane="best" from="-4420669#13" to="592369192"/>
    <trip id="bus119" type="bus_bus" depart="299.08" departLane="best" departSpeed="max" from="390597021#0" to="49326655#6"/>
    <trip id="bus120" type="bus_bus" depart="301.59" departLane="best" from="-20546955#1" to="1190768692"/>
    <trip id="bus121" type="bus_bus" depart="304.11" departLane="best" departSpeed="max" from="991859795" to="991157801"/>
    <trip id="bus122" type="bus_bus" depart="306.62" departLane="best" departSpeed="max" from="-20546955#3" to="-4693394#3"/>
    <trip id="bus123" type="bus_bus" depart="309.13" departLane="best" from="-4648281#2" to="592116100"/>
    <trip id="bus124" type="bus_bus" depart="311.65" departLane="best" from="958116508#0" to="580540664#0"/>
    <trip id="bus125" type="bus_bus" depart="314.16" departLane="best" from="-48526068#6" to="460117247"/>
    <trip id="bus126" type="bus_bus" depart="316.67" departLane="best" from="-20548866#19" to="958035013#8"/>
    <trip id="bus127" type="bus_bus" depart="319.19" departLane="best" departSpeed="max" from="23341492" to="-1220178769"/>
    <trip id="bus128" type="bus_bus" depart="321.70" departLane="best" from="4750829#1" to="-49326655#1"/>
    <trip id="bus129" type="bus_bus" depart="324.21" departLane="best" from="390204459#6" to="592357559#1"/>
    <trip id="bus130" type="bus_bus" depart="326.72" departLane="best" departSpeed="max" from="-20550161#2" to="-390204459#4"/>
    <trip id="bus131" type="bus_bus" depart="329.24" departLane="best" from="-466067437#0" to="390204455#0"/>
    <trip id="bus132" type="bus_bus" depart="331.75" departLane="best" from="435512521#4" to="-4648552#5"/>
    <trip id="bus133" type="bus_bus" depart="334.26" departLane="best" departSpeed="max" from="20550137" to="-4717324"/>
    <trip id="bus134" type="bus_bus" depart="336.78" departLane="best" from="-592365299#4" to="590526264#2"/>
    <trip id="bus135" type="bus_bus" depart="339.29" departLane="best" from="49326653#9" to="-20550155#0"/>
    <trip id="bus136" type="bus_bus" depart="341.80" departLane="best" departSpeed="max" from="-580534810#1" to="-4750852#0"/>
    <trip id="bus137" type="bus_bus" depart="344.32" departLane="best" departSpeed="max" from="-1164029055" to="4709230#4"/>
    <trip id="bus138" type="bus_bus" depart="346.83" departLane="best" from="-20550140#1" to="-4717316#0"/>
    <trip id="bus139" type="bus_bus" depart="349.34" departLane="best" from="-460117248#0" to="20548885#2"/>
    <trip id="bus140" type="bus_bus" depart="351.86" departLane="best" from="-580540663" to="-13984261#1"/>
    <trip id="bus141" type="bus_bus" depart="354.37" departLane="best" from="581192086#6" to="20548876#1"/>
    <trip id="bus143" type="bus_bus" depart="359.40" departLane="best" departSpeed="max" from="-246446006#4" to="-401753885#6"/>
    <trip id="bus144" type="bus_bus" depart="361.91" departLane="best" from="-4709218#1" to="-590232065#1"/>
    <trip id="bus145" type="bus_bus" depart="364.42" departLane="best" departSpeed="max" from="4709226#0" to="562503481#1"/>
    <trip id="bus146" type="bus_bus" depart="366.94" departLane="best" departSpeed="max" from="580540662#0" to="-466067444"/>
    <trip id="bus147" type="bus_bus" depart="369.45" departLane="best" from="460117244#0" to="-20551344#0"/>
    <trip id="bus148" type="bus_bus" depart="371.96" departLane="best" from="4709197#6" to="585193584#1"/>
    <trip id="bus149" type="bus_bus" depart="374.48" departLane="best" from="-518018242#0" to="401753885#3"/>
    <trip id="bus150" type="bus_bus" depart="376.99" departLane="best" from="49326680#3" to="772559184"/>
    <trip id="bus151" type="bus_bus" depart="379.50" departLane="best" from="4717316#1" to="580540666"/>
    <trip id="bus152" type="bus_bus" depart="382.02" departLane="best" from="-13984261#2" to="4709186#1"/>
    <trip id="bus153" type="bus_bus" depart="384.53" departLane="best" from="-4717452" to="592116097#2"/>
    <trip id="bus154" type="bus_bus" depart="387.04" departLane="best" departSpeed="max" from="4709230#0" to="578988014"/>
    <trip id="bus155" type="bus_bus" depart="389.56" departLane="best" from="4709207#4" to="-329894574#2"/>
    <trip id="bus157" type="bus_bus" depart="394.58" departLane="best" departSpeed="max" from="-590836838#1" to="-49326659#0"/>
    <trip id="bus158" type="bus_bus" depart="397.10" departLane="best" from="-4709225#5" to="-4709189#0"/>
    <trip id="bus159" type="bus_bus" depart="399.61" departLane="best" departSpeed="max" from="-1337872965" to="-460117266#1"/>
    <trip id="bus160" type="bus_bus" depart="402.12" departLane="best" from="-4717313#0" to="579234147#0"/>
    <trip id="bus161" type="bus_bus" depart="404.64" departLane="best" from="757646633#0" to="-4750854#1"/>
    <trip id="bus162" type="bus_bus" depart="407.15" departLane="best" from="20550155#1" to="592377337#2"/>
    <trip id="bus163" type="bus_bus" depart="409.66" departLane="best" from="779414602#8" to="20547036#2"/>
    <trip id="bus164" type="bus_bus" depart="412.18" departLane="best" from="592365299#4" to="-390204459#3"/>
    <trip id="bus165" type="bus_bus" depart="414.69" departLane="best" departSpeed="max" from="770918055#0" to="-4420669#15"/>
    <trip id="bus166" type="bus_bus" depart="417.20" departLane="best" from="701791542" to="-4717558"/>
    <trip id="bus167" type="bus_bus" depart="419.72" departLane="best" from="-20549417#0" to="-955778450#1"/>
    <trip id="bus168" type="bus_bus" depart="422.23" departLane="best" from="4420669#12" to="-49326672#0"/>
    <trip id="bus169" type="bus_bus" depart="424.74" departLane="best" from="20547023" to="13987740#1"/>
    <trip id="bus170" type="bus_bus" depart="427.26" departLane="best" departSpeed="max" from="-49326662#3" to="20550155#2"/>
    <trip id="bus171" type="bus_bus" depart="429.77" departLane="best" departSpeed="max" from="-460117265" to="-460588677#1"/>
    <trip id="bus172" type="bus_bus" depart="432.28" departLane="best" from="958116508#1" to="-465267600#7"/>
    <trip id="bus173" type="bus_bus" depart="434.80" departLane="best" from="460117249#0" to="435496769"/>
    <trip id="bus174" type="bus_bus" depart="437.31" departLane="best" from="-48526921#1" to="-20548876#0"/>
    <trip id="bus175" type="bus_bus" depart="439.82" departLane="best" from="390519490#0" to="-577205597#1"/>
    <trip id="bus176" type="bus_bus" depart="442.34" departLane="best" from="-4709226#1" to="49326893"/>
    <trip id="bus177" type="bus_bus" depart="444.85" departLane="best" from="435512525" to="-49326655#7"/>
    <trip id="bus178" type="bus_bus" depart="447.36" departLane="best" departSpeed="max" from="-4709218#7" to="608660846#3"/>
    <trip id="bus179" type="bus_bus" depart="449.88" departLane="best" from="-49326909" to="-49326651"/>
    <trip id="bus180" type="bus_bus" depart="452.39" departLane="best" departSpeed="max" from="-20550148#2" to="757646637#1"/>
    <trip id="bus181" type="bus_bus" depart="454.90" departLane="best" from="-592336333#2" to="-435512521#2"/>
    <trip id="bus182" type="bus_bus" depart="457.41" departLane="best" from="580563883" to="390581215"/>
    <trip id="bus183" type="bus_bus" depart="459.93" departLane="best" from="-4709205#0" to="20548881#2"/>
    <trip id="bus184" type="bus_bus" depart="462.44" departLane="best" from="1011078576#1" to="-48526725#0"/>
    <trip id="bus185" type="bus_bus" depart="464.95" departLane="best" departSpeed="max" from="-580540666" to="20550160#2"/>
    <trip id="bus186" type="bus_bus" depart="467.47" departLane="best" from="-591858961#4" to="590456072#1"/>
    <trip id="bus187" type="bus_bus" depart="469.98" departLane="best" departSpeed="max" from="4709226#0" to="-435512523#0"/>
    <trip id="bus188" type="bus_bus" depart="472.49" departLane="best" departSpeed="max" from="-20547030#1" to="13987744"/>
    <trip id="bus189" type="bus_bus" depart="475.01" departLane="best" from="20549435#2" to="579234150#2"/>
    <trip id="bus190" type="bus_bus" depart="477.52" departLane="best" from="4750829#7" to="-4709208#1"/>
    <trip id="bus191" type="bus_bus" depart="480.03" departLane="best" departSpeed="max" from="390597024" to="-4709186#2"/>
    <trip id="bus192" type="bus_bus" depart="482.55" departLane="best" from="-428067054#7" to="-13985273#0"/>
    <trip id="bus193" type="bus_bus" depart="485.06" departLane="best" from="460117238#2" to="13984262#5"/>
    <trip id="bus194" type="bus_bus" depart="487.57" departLane="best" from="49326658#1" to="20548887#0"/>
    <trip id="bus195" type="bus_bus" depart="490.09" departLane="best" from="-579234150#1" to="427818594"/>
    <trip id="bus196" type="bus_bus" depart="492.60" departLane="best" departSpeed="max" from="-428067046#5" to="460117240#2"/>
    <trip id="bus197" type="bus_bus" depart="495.11" departLane="best" from="-592377333" to="-4709217#0"/>
    <trip id="bus198" type="bus_bus" depart="497.63" departLane="best" departSpeed="max" from="329894574#0" to="-1190731584"/>
    <trip id="bus199" type="bus_bus" depart="500.14" departLane="best" from="-4648013#2" to="4709230#1"/>
    <trip id="bus200" type="bus_bus" depart="502.65" departLane="best" departSpeed="max" from="-20548888" to="-772450686#0"/>
    <trip id="bus201" type="bus_bus" depart="505.17" departLane="best" from="-402177029#0" to="655097772#1"/>
    <trip id="bus202" type="bus_bus" depart="507.68" departLane="best" from="-757646634" to="-157837960"/>
    <trip id="bus203" type="bus_bus" depart="510.19" departLane="best" from="460117243#3" to="49326893"/>
    <trip id="bus204" type="bus_bus" depart="512.71" departLane="best" departSpeed="max" from="-590809202" to="4750871"/>
    <trip id="bus205" type="bus_bus" depart="515.22" departLane="best" from="390581196#1" to="-958035015#1"/>
    <trip id="bus206" type="bus_bus" depart="517.73" departLane="best" from="157837956" to="592377345"/>
    <trip id="bus208" type="bus_bus" depart="522.76" departLane="best" from="435512524#3" to="13987470#1"/>
    <trip id="bus209" type="bus_bus" depart="525.27" departLane="best" from="-4750883" to="20548881#1"/>
    <trip id="bus210" type="bus_bus" depart="527.79" departLane="best" departSpeed="max" from="580540659" to="4709198#1"/>
    <trip id="bus212" type="bus_bus" depart="532.81" departLane="best" from="-460117241#2" to="428066225"/>
    <trip id="bus213" type="bus_bus" depart="535.33" departLane="best" from="4693447#0" to="20546956#1"/>
    <trip id="bus214" type="bus_bus" depart="537.84" departLane="best" from="20549429#5" to="-4750846#1"/>
    <trip id="bus215" type="bus_bus" depart="540.35" departLane="best" departSpeed="max" from="-20547018" to="48526068#7"/>
    <trip id="bus216" type="bus_bus" depart="542.87" departLane="best" from="592377321#0" to="-49326898"/>
    <trip id="bus217" type="bus_bus" depart="545.38" departLane="best" departSpeed="max" from="-987818673#1" to="-428066227"/>
    <trip id="bus218" type="bus_bus" depart="547.89" departLane="best" from="-435512524#3" to="460117231"/>
    <trip id="bus219" type="bus_bus" depart="550.41" departLane="best" from="-435135727#3" to="-20548866#20"/>
    <trip id="bus221" type="bus_bus" depart="555.43" departLane="best" from="-579244822" to="-466067433"/>
    <trip id="bus222" type="bus_bus" depart="557.95" departLane="best" from="580472450" to="590526264#2"/>
    <trip id="bus223" type="bus_bus" depart="560.46" departLane="best" from="-13987463#3" to="460117239#0"/>
    <trip id="bus224" type="bus_bus" depart="562.97" departLane="best" from="49326663#1" to="4709227#3"/>
    <trip id="bus225" type="bus_bus" depart="565.49" departLane="best" from="-49326658#10" to="-1190768693"/>
    <trip id="bus226" type="bus_bus" depart="568.00" departLane="best" departSpeed="max" from="-4750871" to="4709215#2"/>
    <trip id="bus227" type="bus_bus" depart="570.51" departLane="best" departSpeed="max" from="49326661#0" to="60659681#1"/>
    <trip id="bus228" type="bus_bus" depart="573.03" departLane="best" from="-579323358#0" to="4709198#2"/>
    <trip id="bus229" type="bus_bus" depart="575.54" departLane="best" departSpeed="max" from="-997075506" to="390204452"/>
    <trip id="bus230" type="bus_bus" depart="578.05" departLane="best" from="-435495854" to="-4709170#0"/>
    <trip id="bus231" type="bus_bus" depart="580.56" departLane="best" departSpeed="max" from="-588134516" to="-13986805#0"/>
    <trip id="bus232" type="bus_bus" depart="583.08" departLane="best" from="-4750829#5" to="-435512524#1"/>
    <trip id="bus233" type="bus_bus" depart="585.59" departLane="best" from="49326913#4" to="-435496777#0"/>
    <trip id="bus234" type="bus_bus" depart="588.10" departLane="best" from="-590983902#0" to="-401753885#7"/>
    <trip id="bus235" type="bus_bus" depart="590.62" departLane="best" from="20549417#1" to="-13986798"/>
    <trip id="bus236" type="bus_bus" depart="593.13" departLane="best" from="49326680#1" to="20549429#7"/>
    <trip id="bus237" type="bus_bus" depart="595.64" departLane="best" from="-13984262#4" to="428067046#4"/>
    <trip id="bus238" type="bus_bus" depart="598.16" departLane="best" departSpeed="max" from="-20550164#3" to="1220178763"/>
    <trip id="bus239" type="bus_bus" depart="600.67" departLane="best" from="-13987463#14" to="590983899#0"/>
    <trip id="bus240" type="bus_bus" depart="603.18" departLane="best" departSpeed="max" from="-435134259" to="-50599069"/>
    <trip id="bus241" type="bus_bus" depart="605.70" departLane="best" from="466067455" to="-590983900"/>
    <trip id="bus242" type="bus_bus" depart="608.21" departLane="best" from="-4648281#1" to="49326658#5"/>
    <trip id="bus243" type="bus_bus" depart="610.72" departLane="best" departSpeed="max" from="-460117247" to="-20549433#4"/>
    <trip id="bus244" type="bus_bus" depart="613.24" departLane="best" departSpeed="max" from="-1306541375" to="20548866#11"/>
    <trip id="bus245" type="bus_bus" depart="615.75" departLane="best" departSpeed="max" from="995158081" to="-580540662#0"/>
    <trip id="bus246" type="bus_bus" depart="618.26" departLane="best" departSpeed="max" from="20551343#0" to="4717322#1"/>
    <trip id="bus247" type="bus_bus" depart="620.78" departLane="best" departSpeed="max" from="20551344#0" to="-4709216#1"/>
    <trip id="bus248" type="bus_bus" depart="623.29" departLane="best" from="-1331842465#0" to="-435134241"/>
    <trip id="bus249" type="bus_bus" depart="625.80" departLane="best" departSpeed="max" from="-20550147#2" to="435495859"/>
    <trip id="bus250" type="bus_bus" depart="628.32" departLane="best" from="13985255#6" to="-4709121#6"/>
    <trip id="bus251" type="bus_bus" depart="630.83" departLane="best" departSpeed="max" from="435134241" to="4709228#3"/>
    <trip id="bus252" type="bus_bus" depart="633.34" departLane="best" from="460611745#6" to="-390204457#5"/>