<?xml version="1.0" encoding="UTF-8"?>

<!-- generated on 2025-03-15 18:31:13.280978 by osmWebWizard.py v1_22_0+0002-63e50f52594
<configuration>
    <net-file value="C:\Users\user\Sumo\2025-03-15-18-30-05\osm.net.xml.gz"/>
    <output-trip-file value="C:\Users\user\Sumo\2025-03-15-18-30-05\osm.passenger.trips.xml"/>
    <route-file value="C:\Users\user\Sumo\2025-03-15-18-30-05\osm.passenger.rou.xml"/>
    <prefix value="veh"/>
    <trip-attributes value="departLane=&quot;best&quot;"/>
    <fringe-start-attributes value="departSpeed=&quot;max&quot;"/>
    <vehicle-class value="passenger"/>
    <lanes value="True"/>
    <fringe-factor value="5"/>
    <allow-fringe.min-length value="1000.0"/>
    <via-edge-types value="highway.motorway,highway.motorway_link,highway.trunk_link,highway.primary_link,highway.secondary_link,highway.tertiary_link"/>
    <min-distance value="300.0"/>
    <min-distance.fringe value="10.0"/>
    <remove-loops value="True"/>
    <validate value="True"/>
    <insertion-density value="12.7"/>
</configuration>
-->

<!-- generated on 2025-03-15 18:31:09 by Eclipse SUMO duarouter Version 1.22.0
<duarouterConfiguration xmlns:xsi="http://www.w3.org/2001/XMLSchema-instance" xsi:noNamespaceSchemaLocation="http://sumo.dlr.de/xsd/duarouterConfiguration.xsd">

    <input>
        <net-file value="C:\Users\user\Sumo\2025-03-15-18-30-05\osm.net.xml.gz"/>
        <route-files value="C:\Users\user\Sumo\2025-03-15-18-30-05\osm.passenger.trips.xml"/>
    </input>

    <output>
        <output-file value="C:\Users\user\Sumo\2025-03-15-18-30-05\osm.passenger.trips.xml.tmp"/>
        <alternatives-output value="NUL"/>
        <write-trips value="true"/>
    </output>

    <processing>
        <remove-loops value="true"/>
    </processing>

    <time>
        <begin value="0.0"/>
        <end value="3600.0"/>
    </time>

    <report>
        <no-warnings value="true"/>
        <ignore-errors value="true"/>
        <no-step-log value="true"/>
    </report>

</duarouterConfiguration>
-->

<routes xmlns:xsi="http://www.w3.org/2001/XMLSchema-instance" xsi:noNamespaceSchemaLocation="http://sumo.dlr.de/xsd/routes_file.xsd">
    <vType id="veh_passenger" vClass="passenger"/>
    <trip id="veh0" type="veh_passenger" depart="0.00" departLane="best" departSpeed="max" from="20550157#0" to="-13986777#0"/>
    <trip id="veh1" type="veh_passenger" depart="0.87" departLane="best" from="4693394#3" to="-4709184"/>
    <trip id="veh2" type="veh_passenger" depart="1.74" departLane="best" departSpeed="max" from="460117243#0" to="435512525"/>
    <trip id="veh3" type="veh_passenger" depart="2.61" departLane="best" from="-580540657#0" to="-20550147#0"/>
    <trip id="veh4" type="veh_passenger" depart="3.48" departLane="best" from="-580540661" to="-13986808#0"/>
    <trip id="veh5" type="veh_passenger" depart="4.35" departLane="best" departSpeed="max" from="-435496774#2" to="13987470#2"/>
    <trip id="veh6" type="veh_passenger" depart="5.22" departLane="best" from="-13984262#5" to="460775412#1"/>
    <trip id="veh8" type="veh_passenger" depart="6.97" departLane="best" departSpeed="max" from="-435496778#1" to="20551343#2"/>
    <trip id="veh9" type="veh_passenger" depart="7.84" departLane="best" from="4717316#1" to="-1190768693"/>
    <trip id="veh10" type="veh_passenger" depart="8.71" departLane="best" from="4709237#1" to="460117241#3"/>
    <trip id="veh11" type="veh_passenger" depart="9.58" departLane="best" from="-4750829#0" to="435135727#3"/>
    <trip id="veh12" type="veh_passenger" depart="10.45" departLane="best" from="699932342#0" to="-579273613"/>
    <trip id="veh13" type="veh_passenger" depart="11.32" departLane="best" from="-20548867#1" to="-20550164#0"/>
    <trip id="veh14" type="veh_passenger" depart="12.19" departLane="best" from="-49326658#1" to="390204456"/>
    <trip id="veh15" type="veh_passenger" depart="13.06" departLane="best" from="4717288#3" to="-4693447#0"/>
    <trip id="veh16" type="veh_passenger" depart="13.93" departLane="best" from="-958035015#5" to="-773641184#1"/>
    <trip id="veh17" type="veh_passenger" depart="14.80" departLane="best" from="-49326659#1" to="20548888"/>
    <trip id="veh18" type="veh_passenger" depart="15.67" departLane="best" from="48526056#0" to="-401753885#4"/>
    <trip id="veh19" type="veh_passenger" depart="16.54" departLane="best" from="49326680#2" to="20550157#2"/>
    <trip id="veh20" type="veh_passenger" depart="17.41" departLane="best" from="435495856#0" to="-157837955#3"/>
    <trip id="veh21" type="veh_passenger" depart="18.29" departLane="best" from="435512530#0" to="-48526981#3"/>
    <trip id="veh22" type="veh_passenger" depart="19.16" departLane="best" departSpeed="max" from="-20547026#1" to="-4709198#4"/>
    <trip id="veh23" type="veh_passenger" depart="20.03" departLane="best" departSpeed="max" from="-20548882#3" to="-4750858#1"/>
    <trip id="veh24" type="veh_passenger" depart="20.90" departLane="best" departSpeed="max" from="20550148#0" to="-590526264#0"/>
    <trip id="veh25" type="veh_passenger" depart="21.77" departLane="best" from="-49326652#2" to="466067442#2"/>
    <trip id="veh26" type="veh_passenger" depart="22.64" departLane="best" from="-465267600#4" to="-466067455"/>
    <trip id="veh27" type="veh_passenger" depart="23.51" departLane="best" from="20551343#1" to="390519493#1"/>
    <trip id="veh28" type="veh_passenger" depart="24.38" departLane="best" from="-402130573" to="4693412#5"/>
    <trip id="veh29" type="veh_passenger" depart="25.25" departLane="best" from="390581214" to="-591868912#0"/>
    <trip id="veh30" type="veh_passenger" depart="26.12" departLane="best" from="-958035013#9" to="428067046#3"/>
    <trip id="veh31" type="veh_passenger" depart="26.99" departLane="best" from="-13984261#1" to="422104862#0"/>
    <trip id="veh32" type="veh_passenger" depart="27.86" departLane="best" from="-49326653#3" to="4717289#1"/>
    <trip id="veh33" type="veh_passenger" depart="28.73" departLane="best" from="-435512532" to="-13987458#2"/>
    <trip id="veh34" type="veh_passenger" depart="29.61" departLane="best" departSpeed="max" from="-4709228#3" to="-4750829#4"/>
    <trip id="veh35" type="veh_passenger" depart="30.48" departLane="best" departSpeed="max" from="-435135726" to="592377336"/>
    <trip id="veh36" type="veh_passenger" depart="31.35" departLane="best" departSpeed="max" from="577205599#0" to="-49326680#5"/>
    <trip id="veh37" type="veh_passenger" depart="32.22" departLane="best" from="363662927#2" to="-592377338#1"/>
    <trip id="veh38" type="veh_passenger" depart="33.09" departLane="best" from="590772368#0" to="1190768692"/>
    <trip id="veh39" type="veh_passenger" depart="33.96" departLane="best" from="-4648552#1" to="-4709226#0"/>
    <trip id="veh40" type="veh_passenger" depart="34.83" departLane="best" from="-13985253" to="-4717324"/>
    <trip id="veh41" type="veh_passenger" depart="35.70" departLane="best" from="13987465#2" to="590456072#1"/>
    <trip id="veh42" type="veh_passenger" depart="36.57" departLane="best" from="49326913#3" to="-4709170#2"/>
    <trip id="veh43" type="veh_passenger" depart="37.44" departLane="best" departSpeed="max" from="991854952" to="13987738#1"/>
    <trip id="veh44" type="veh_passenger" depart="38.31" departLane="best" from="-20548866#2" to="-157837957"/>
    <trip id="veh45" type="veh_passenger" depart="39.18" departLane="best" departSpeed="max" from="-20549422#1" to="427818593#1"/>
    <trip id="veh46" type="veh_passenger" depart="40.05" departLane="best" from="-4709218#1" to="-772559185#1"/>
    <trip id="veh47" type="veh_passenger" depart="40.92" departLane="best" departSpeed="max" from="-13987741" to="-592116097#2"/>
    <trip id="veh48" type="veh_passenger" depart="41.80" departLane="best" departSpeed="max" from="991157802" to="20547026#0"/>
    <trip id="veh49" type="veh_passenger" depart="42.67" departLane="best" from="772559184" to="578988014"/>
    <trip id="veh50" type="veh_passenger" depart="43.54" departLane="best" departSpeed="max" from="-1220178763" to="466067432#0"/>
    <trip id="veh51" type="veh_passenger" depart="44.41" departLane="best" from="428046616#1" to="20547037"/>
    <trip id="veh52" type="veh_passenger" depart="45.28" departLane="best" from="465267600#3" to="428067046#5"/>
    <trip id="veh53" type="veh_passenger" depart="46.15" departLane="best" from="-20549427#1" to="-955778450#1"/>
    <trip id="veh54" type="veh_passenger" depart="47.02" departLane="best" from="-590809208#1" to="655097772#1"/>
    <trip id="veh55" type="veh_passenger" depart="47.89" departLane="best" departSpeed="max" from="-698692737" to="4420669#7"/>
    <trip id="veh56" type="veh_passenger" depart="48.76" departLane="best" from="590526265#0" to="580528153"/>
    <trip id="veh57" type="veh_passenger" depart="49.63" departLane="best" from="-4709205#0" to="428066259#3"/>
    <trip id="veh58" type="veh_passenger" depart="50.50" departLane="best" from="20548866#15" to="-435134256#0"/>
    <trip id="veh59" type="veh_passenger" depart="51.37" departLane="best" departSpeed="max" from="4693394#0" to="-20548866#14"/>
    <trip id="veh60" type="veh_passenger" depart="52.24" departLane="best" from="4709197#1" to="20547027#0"/>
    <trip id="veh61" type="veh_passenger" depart="53.12" departLane="best" departSpeed="max" from="-1306541375" to="592116100"/>
    <trip id="veh62" type="veh_passenger" depart="53.99" departLane="best" from="579234147#0" to="49326660#0"/>
    <trip id="veh63" type="veh_passenger" depart="54.86" departLane="best" departSpeed="max" from="-4709218#7" to="-20547030#0"/>
    <trip id="veh64" type="veh_passenger" depart="55.73" departLane="best" from="958116508#0" to="-60659680#1"/>
    <trip id="veh65" type="veh_passenger" depart="56.60" departLane="best" departSpeed="max" from="-20547036#2" to="13985263#3"/>
    <trip id="veh66" type="veh_passenger" depart="57.47" departLane="best" departSpeed="max" from="-157837958" to="4709219#1"/>
    <trip id="veh67" type="veh_passenger" depart="58.34" departLane="best" from="4693447#1" to="-427818588#1"/>
    <trip id="veh68" type="veh_passenger" depart="59.21" departLane="best" from="-592137666#1" to="20548882#3"/>
    <trip id="veh69" type="veh_passenger" depart="60.08" departLane="best" from="-4648552#2" to="580534810#1"/>
    <trip id="veh70" type="veh_passenger" depart="60.95" departLane="best" departSpeed="max" from="-580540665" to="-4693394#0"/>
    <trip id="veh71" type="veh_passenger" depart="61.82" departLane="best" departSpeed="max" from="-987818673#1" to="4693447#1"/>
    <trip id="veh72" type="veh_passenger" depart="62.69" departLane="best" departSpeed="max" from="-428080112#2" to="-49326676#0"/>
    <trip id="veh73" type="veh_passenger" depart="63.56" departLane="best" departSpeed="max" from="991157800" to="428079981#1"/>
    <trip id="veh74" type="veh_passenger" depart="64.43" departLane="best" departSpeed="max" from="-588742835" to="157837955#4"/>
    <trip id="veh75" type="veh_passenger" depart="65.31" departLane="best" from="-20550138#2" to="-4709186#5"/>
    <trip id="veh76" type="veh_passenger" depart="66.18" departLane="best" from="4750844#1" to="20551343#2"/>
    <trip id="veh77" type="veh_passenger" depart="67.05" departLane="best" departSpeed="max" from="-435512533#1" to="-4709171#0"/>
    <trip id="veh78" type="veh_passenger" depart="67.92" departLane="best" departSpeed="max" from="-20546955#3" to="428046608#1"/>
    <trip id="veh79" type="veh_passenger" depart="68.79" departLane="best" from="-435512532" to="590809202"/>
    <trip id="veh80" type="veh_passenger" depart="69.66" departLane="best" departSpeed="max" from="49326676#0" to="-20548885#3"/>
    <trip id="veh81" type="veh_passenger" depart="70.53" departLane="best" from="-4420669#8" to="435496774#2"/>
    <trip id="veh82" type="veh_passenger" depart="71.40" departLane="best" departSpeed="max" from="-435495852#2" to="-428046616#0"/>
    <trip id="veh83" type="veh_passenger" depart="72.27" departLane="best" from="-592336331" to="20550138#4"/>
    <trip id="veh84" type="veh_passenger" depart="73.14" departLane="best" departSpeed="max" from="-592116099#2" to="4750829#4"/>
    <trip id="veh85" type="veh_passenger" depart="74.01" departLane="best" from="4717312" to="-460117249#0"/>
    <trip id="veh86" type="veh_passenger" depart="74.88" departLane="best" from="-20548878#0" to="779414602#7"/>
    <trip id="veh87" type="veh_passenger" depart="75.75" departLane="best" departSpeed="max" from="-580540665" to="1220178768"/>
    <trip id="veh88" type="veh_passenger" depart="76.62" departLane="best" from="4420669#6" to="435496780#1"/>
    <trip id="veh89" type="veh_passenger" depart="77.50" departLane="best" from="-958013085#1" to="20551341#0"/>
    <trip id="veh91" type="veh_passenger" depart="79.24" departLane="best" from="49326680#10" to="-4709227#1"/>
    <trip id="veh92" type="veh_passenger" depart="80.11" departLane="best" departSpeed="max" from="-428067046#5" to="-991157802"/>
    <trip id="veh93" type="veh_passenger" depart="80.98" departLane="best" from="-580540661" to="4750861#0"/>
    <trip id="veh94" type="veh_passenger" depart="81.85" departLane="best" departSpeed="max" from="-460117247" to="591859636"/>
    <trip id="veh95" type="veh_passenger" depart="82.72" departLane="best" from="-590456070" to="578988014"/>
    <trip id="veh96" type="veh_passenger" depart="83.59" departLane="best" departSpeed="max" from="1189288855" to="-157837962"/>
    <trip id="veh97" type="veh_passenger" depart="84.46" departLane="best" departSpeed="max" from="995158081" to="49326670#1"/>
    <trip id="veh98" type="veh_passenger" depart="85.33" departLane="best" from="770918060#0" to="592116097#0"/>
    <trip id="veh99" type="veh_passenger" depart="86.20" departLane="best" from="49326658#4" to="-435512524#0"/>
    <trip id="veh100" type="veh_passenger" depart="87.07" departLane="best" departSpeed="max" from="-592369196" to="-4693412#0"/>
    <trip id="veh101" type="veh_passenger" depart="87.94" departLane="best" from="-49326660#0" to="958035013#13"/>
    <trip id="veh102" type="veh_passenger" depart="88.82" departLane="best" from="-4648552#2" to="4750829#1"/>
    <trip id="veh103" type="veh_passenger" depart="89.69" departLane="best" departSpeed="max" from="-590836838#1" to="-773641184#0"/>
    <trip id="veh104" type="veh_passenger" depart="90.56" departLane="best" from="699932342#0" to="991157799"/>
    <trip id="veh105" type="veh_passenger" depart="91.43" departLane="best" departSpeed="max" from="1365758905" to="-465267596#1"/>
    <trip id="veh106" type="veh_passenger" depart="92.30" departLane="best" departSpeed="max" from="-390204456" to="-49326653#9"/>
    <trip id="veh107" type="veh_passenger" depart="93.17" departLane="best" from="770918059" to="20550160#2"/>
    <trip id="veh108" type="veh_passenger" depart="94.04" departLane="best" departSpeed="max" from="-991157799" to="4709201#1"/>
    <trip id="veh109" type="veh_passenger" depart="94.91" departLane="best" from="-13987729#0" to="-20551338#1"/>
    <trip id="veh110" type="veh_passenger" depart="95.78" departLane="best" from="-701791542" to="-50599068#2"/>
    <trip id="veh111" type="veh_passenger" depart="96.65" departLane="best" from="-390204459#7" to="-723815317#2"/>
    <trip id="veh112" type="veh_passenger" depart="97.52" departLane="best" departSpeed="max" from="-20547026#1" to="-460117243#0"/>
    <trip id="veh113" type="veh_passenger" depart="98.39" departLane="best" departSpeed="max" from="157837959" to="435512523#1"/>
    <trip id="veh114" type="veh_passenger" depart="99.26" departLane="best" from="-4420669#15" to="-390581218#2"/>
    <trip id="veh115" type="veh_passenger" depart="100.13" departLane="best" departSpeed="max" from="580528158" to="-4709226#0"/>
    <trip id="veh116" type="veh_passenger" depart="101.01" departLane="best" departSpeed="max" from="157837957" to="401754324"/>
    <trip id="veh117" type="veh_passenger" depart="101.88" departLane="best" departSpeed="max" from="-580540656" to="20551337#1"/>
    <trip id="veh118" type="veh_passenger" depart="102.75" departLane="best" from="-779414602#3" to="592357559#1"/>
    <trip id="veh119" type="veh_passenger" depart="103.62" departLane="best" departSpeed="max" from="-435134252#2" to="4648281#0"/>
    <trip id="veh120" type="veh_passenger" depart="104.49" departLane="best" departSpeed="max" from="-458580808#1" to="-592377339"/>
    <trip id="veh121" type="veh_passenger" depart="105.36" departLane="best" from="401753885#7" to="-49326658#0"/>
    <trip id="veh122" type="veh_passenger" depart="106.23" departLane="best" from="-4709229#2" to="4709210#1"/>
    <trip id="veh123" type="veh_passenger" depart="107.10" departLane="best" from="-20546957#1" to="1190731586"/>
    <trip id="veh124" type="veh_passenger" depart="107.97" departLane="best" departSpeed="max" from="991859795" to="991157801"/>
    <trip id="veh125" type="veh_passenger" depart="108.84" departLane="best" from="20546957#4" to="-4693394#4"/>
    <trip id="veh126" type="veh_passenger" depart="109.71" departLane="best" from="-4648552#2" to="592155949"/>
    <trip id="veh127" type="veh_passenger" depart="110.58" departLane="best" from="579234150#3" to="-580563881"/>
    <trip id="veh128" type="veh_passenger" depart="111.45" departLane="best" from="-49326649" to="-435495855"/>
    <trip id="veh129" type="veh_passenger" depart="112.33" departLane="best" from="48526725#4" to="460117248#0"/>
    <trip id="veh130" type="veh_passenger" depart="113.20" departLane="best" departSpeed="max" from="20548867#0" to="958035013#8"/>
    <trip id="veh131" type="veh_passenger" depart="114.07" departLane="best" from="-329894574#4" to="-1220178769"/>
    <trip id="veh132" type="veh_passenger" depart="114.94" departLane="best" from="4750829#8" to="-49326656#6"/>
    <trip id="veh133" type="veh_passenger" depart="115.81" departLane="best" departSpeed="max" from="390581196#0" to="-592369193"/>
    <trip id="veh134" type="veh_passenger" depart="116.68" departLane="best" departSpeed="max" from="-20551337#1" to="-390519494#0"/>
    <trip id="veh135" type="veh_passenger" depart="117.55" departLane="best" from="-20549419#0" to="20548889"/>
    <trip id="veh136" type="veh_passenger" depart="118.42" departLane="best" from="-466067442#1" to="390204457#3"/>
    <trip id="veh137" type="veh_passenger" depart="119.29" departLane="best" from="435512530#3" to="-4648552#5"/>
    <trip id="veh138" type="veh_passenger" depart="120.16" departLane="best" departSpeed="max" from="20550140#0" to="-4717558"/>
    <trip id="veh139" type="veh_passenger" depart="121.03" departLane="best" from="-592377337#1" to="590809202"/>
    <trip id="veh140" type="veh_passenger" depart="121.90" departLane="best" from="-49326656#3" to="-20550160#0"/>
    <trip id="veh141" type="veh_passenger" depart="122.77" departLane="best" departSpeed="max" from="-580540665" to="-4750853#3"/>
    <trip id="veh142" type="veh_passenger" depart="123.64" departLane="best" departSpeed="max" from="-1164029055" to="4709230#4"/>
    <trip id="veh143" type="veh_passenger" depart="124.52" departLane="best" departSpeed="max" from="20550149" to="-4717324"/>
    <trip id="veh144" type="veh_passenger" depart="125.39" departLane="best" from="460117249#1" to="-20548887#1"/>
    <trip id="veh145" type="veh_passenger" depart="126.26" departLane="best" departSpeed="max" from="-585193584#2" to="13984261#3"/>
    <trip id="veh146" type="veh_passenger" depart="127.13" departLane="best" departSpeed="max" from="-20547017" to="585431078#1"/>
    <trip id="veh147" type="veh_passenger" depart="128.00" departLane="best" departSpeed="max" from="588642835#0" to="20548876#1"/>
    <trip id="veh149" type="veh_passenger" depart="129.74" departLane="best" from="-363662927#10" to="-422103308#0"/>
    <trip id="veh150" type="veh_passenger" depart="130.61" departLane="best" departSpeed="max" from="-4709219#1" to="590526259"/>
    <trip id="veh151" type="veh_passenger" depart="131.48" departLane="best" departSpeed="max" from="4709227#0" to="578988014"/>
    <trip id="veh152" type="veh_passenger" depart="132.35" departLane="best" from="580563879" to="-466067445"/>
    <trip id="veh153" type="veh_passenger" depart="133.22" departLane="best" from="-460117246#9" to="-23341492"/>
    <trip id="veh154" type="veh_passenger" depart="134.09" departLane="best" from="4709198#11" to="588134516"/>
    <trip id="veh155" type="veh_passenger" depart="134.96" departLane="best" from="-577205598" to="402177029#0"/>
    <trip id="veh156" type="veh_passenger" depart="135.84" departLane="best" departSpeed="max" from="-390204456" to="592137663#3"/>
    <trip id="veh157" type="veh_passenger" depart="136.71" departLane="best" from="49326897#0" to="779414602#1"/>
    <trip id="veh158" type="veh_passenger" depart="137.58" departLane="best" departSpeed="max" from="4717324" to="585193584#2"/>
    <trip id="veh159" type="veh_passenger" depart="138.45" departLane="best" from="-13984261#4" to="4709185"/>
    <trip id="veh160" type="veh_passenger" depart="139.32" departLane="best" from="-4750829#1" to="592137663#3"/>
    <trip id="veh161" type="veh_passenger" depart="140.19" departLane="best" from="4709230#2" to="579252757"/>
    <trip id="veh162" type="veh_passenger" depart="141.06" departLane="best" departSpeed="max" from="4717324" to="-4750829#0"/>
    <trip id="veh163" type="veh_passenger" depart="141.93" departLane="best" from="50599077" to="-958116508#1"/>
    <trip id="veh164" type="veh_passenger" depart="142.80" departLane="best" departSpeed="max" from="-590983899#1" to="-49326662#0"/>
    <trip id="veh165" type="veh_passenger" depart="143.67" departLane="best" departSpeed="max" from="-1337872965" to="-460588677#0"/>
    <trip id="veh166" type="veh_passenger" depart="144.54" departLane="best" departSpeed="max" from="-4717322#1" to="579252758#1"/>
    <trip id="veh167" type="veh_passenger" depart="145.41" departLane="best" departSpeed="max" from="770918055#0" to="-4750861#3"/>
    <trip id="veh168" type="veh_passenger" depart="146.28" departLane="best" departSpeed="max" from="20550161#0" to="-60659680#1"/>
    <trip id="veh169" type="veh_passenger" depart="147.15" departLane="best" departSpeed="max" from="955774149#0" to="20547037"/>
    <trip id="veh170" type="veh_passenger" depart="148.03" departLane="best" from="-592365298" to="-390519494#0"/>
    <trip id="veh171" type="veh_passenger" depart="148.90" departLane="best" from="772450686#0" to="-4420669#6"/>
    <trip id="veh172" type="veh_passenger" depart="149.77" departLane="best" from="-757646628#1" to="-4750828#0"/>
    <trip id="veh173" type="veh_passenger" depart="150.64" departLane="best" departSpeed="max" from="-20549420" to="-955778450#0"/>
    <trip id="veh174" type="veh_passenger" depart="151.51" departLane="best" from="4420669#4" to="-49326680#0"/>
    <trip id="veh175" type="veh_passenger" depart="152.38" departLane="best" from="20547033#0" to="13987740#0"/>
    <trip id="veh176" type="veh_passenger" depart="153.25" departLane="best" departSpeed="max" from="-49326672#1" to="20550156#1"/>
    <trip id="veh177" type="veh_passenger" depart="154.12" departLane="best" departSpeed="max" from="-460117266#4" to="460588679"/>
    <trip id="veh179" type="veh_passenger" depart="155.86" departLane="best" from="958116508#2" to="-465267600#4"/>
    <trip id="veh180" type="veh_passenger" depart="156.73" departLane="best" departSpeed="max" from="460117253" to="435496778#1"/>
    <trip id="veh181" type="veh_passenger" depart="157.60" departLane="best" from="-48526981#4" to="-20548883#0"/>
    <trip id="veh182" type="veh_passenger" depart="158.47" departLane="best" from="390581196#2" to="-579234147#1"/>
    <trip id="veh183" type="veh_passenger" depart="159.35" departLane="best" departSpeed="max" from="-4709227#3" to="49326897#2"/>
    <trip id="veh184" type="veh_passenger" depart="160.22" departLane="best" departSpeed="max" from="435512545" to="-49326658#1"/>
    <trip id="veh185" type="veh_passenger" depart="161.09" departLane="best" from="-4709225#0" to="-702420799#0"/>
    <trip id="veh187" type="veh_passenger" depart="162.83" departLane="best" departSpeed="max" from="-20550156#1" to="-770918061"/>
    <trip id="veh188" type="veh_passenger" depart="163.70" departLane="best" from="592369190" to="-435512527#4"/>
    <trip id="veh189" type="veh_passenger" depart="164.57" departLane="best" from="585425470#5" to="390581219"/>
    <trip id="veh190" type="veh_passenger" depart="165.44" departLane="best" from="-4709215#0" to="20548881#2"/>
    <trip id="veh191" type="veh_passenger" depart="166.31" departLane="best" from="1011078576#1" to="48526922#0"/>
    <trip id="veh192" type="veh_passenger" depart="167.18" departLane="best" departSpeed="max" from="-588134516" to="20550161#2"/>
    <trip id="veh193" type="veh_passenger" depart="168.05" departLane="best" from="363662927#1" to="1220178765"/>
    <trip id="veh194" type="veh_passenger" depart="168.92" departLane="best" departSpeed="max" from="-590426938" to="-4693394#6"/>
    <trip id="veh195" type="veh_passenger" depart="169.79" departLane="best" from="-592116100" to="590526264#2"/>
    <trip id="veh196" type="veh_passenger" depart="170.66" departLane="best" departSpeed="max" from="4709227#0" to="-435512531#0"/>
    <trip id="veh197" type="veh_passenger" depart="171.54" departLane="best" from="-20547034" to="13987744"/>
    <trip id="veh198" type="veh_passenger" depart="172.41" departLane="best" from="20550138#1" to="-579252760"/>
    <trip id="veh199" type="veh_passenger" depart="173.28" departLane="best" from="4750841#2" to="4709208#0"/>
    <trip id="veh200" type="veh_passenger" depart="174.15" departLane="best" departSpeed="max" from="402177031#0" to="-4709186#4"/>
    <trip id="veh201" type="veh_passenger" depart="175.02" departLane="best" departSpeed="max" from="-428079981#1" to="-13986777#0"/>
    <trip id="veh202" type="veh_passenger" depart="175.89" departLane="best" from="460117243#3" to="-13984261#7"/>
    <trip id="veh203" type="veh_passenger" depart="176.76" departLane="best" from="49326658#9" to="-20549418#0"/>
    <trip id="veh204" type="veh_passenger" depart="177.63" departLane="best" from="-579323358#1" to="428046601"/>
    <trip id="veh205" type="veh_passenger" depart="178.50" departLane="best" from="-428067056#0" to="460117240#2"/>
    <trip id="veh206" type="veh_passenger" depart="179.37" departLane="best" from="-60659681#3" to="-4709218#2"/>
    <trip id="veh207" type="veh_passenger" depart="180.24" departLane="best" from="363662927#5" to="-1190731584"/>
    <trip id="veh208" type="veh_passenger" depart="181.11" departLane="best" from="-4648013#2" to="4709230#3"/>
    <trip id="veh209" type="veh_passenger" depart="181.98" departLane="best" from="-20549418#1" to="-773641184#5"/>
    <trip id="veh210" type="veh_passenger" depart="182.86" departLane="best" departSpeed="max" from="-427818590" to="-702420799#1"/>
    <trip id="veh211" type="veh_passenger" depart="183.73" departLane="best" from="-460117246#6" to="-49326901#1"/>
    <trip id="veh212" type="veh_passenger" depart="184.60" departLane="best" departSpeed="max" from="-590840886" to="4750881#1"/>
    <trip id="veh213" type="veh_passenger" depart="185.47" departLane="best" from="390597017#1" to="958035015#0"/>
    <trip id="veh214" type="veh_passenger" depart="186.34" departLane="best" departSpeed="max" from="157837959" to="60659771"/>
    <trip id="veh215" type="veh_passenger" depart="187.21" departLane="best" departSpeed="max" from="580534809" to="-390581213"/>
    <trip id="veh216" type="veh_passenger" depart="188.08" departLane="best" from="435512536" to="13987468#5"/>
    <trip id="veh217" type="veh_passenger" depart="188.95" departLane="best" from="-48526068#11" to="20548881#2"/>
    <trip id="veh218" type="veh_passenger" depart="189.82" departLane="best" departSpeed="max" from="580561465" to="-4709182#8"/>
    <trip id="veh219" type="veh_passenger" depart="190.69" departLane="best" departSpeed="max" from="-592137663#3" to="4717313#1"/>
    <trip id="veh220" type="veh_passenger" depart="191.56" departLane="best" from="460117244#0" to="428066248#2"/>
    <trip id="veh221" type="veh_passenger" depart="192.43" departLane="best" from="4693447#1" to="20546956#1"/>
    <trip id="veh222" type="veh_passenger" depart="193.30" departLane="best" from="20549433#16" to="4750851#2"/>
    <trip id="veh223" type="veh_passenger" depart="194.17" departLane="best" from="20547020#3" to="-48526725#0"/>
    <trip id="veh224" type="veh_passenger" depart="195.05" departLane="best" from="-466067441#1" to="-49326912#1"/>
    <trip id="veh225" type="veh_passenger" depart="195.92" departLane="best" departSpeed="max" from="-991157798" to="-428067046#0"/>
    <trip id="veh226" type="veh_passenger" depart="196.79" departLane="best" from="-4400935#0" to="460117231"/>
    <trip id="veh227" type="veh_passenger" depart="197.66" departLane="best" departSpeed="max" from="435496774#0" to="-20548866#9"/>
    <trip id="veh228" type="veh_passenger" depart="198.53" departLane="best" from="-578519315" to="-20548867#2"/>
    <trip id="veh229" type="veh_passenger" depart="199.40" departLane="best" from="-580472451#2" to="-466067435#0"/>
    <trip id="veh230" type="veh_passenger" depart="200.27" departLane="best" from="-580540657#0" to="590809202"/>
    <trip id="veh231" type="veh_passenger" depart="201.14" departLane="best" from="13987465#0" to="460117239#0"/>
    <trip id="veh232" type="veh_passenger" depart="202.01" departLane="best" from="49326658#5" to="4709227#3"/>
    <trip id="veh233" type="veh_passenger" depart="202.88" departLane="best" departSpeed="max" from="-49326662#3" to="-1190768693"/>