<?xml version="1.0" encoding="UTF-8"?>

<!-- generated on 2025-03-15 18:31:25.370582 by osmWebWizard.py v1_22_0+0002-63e50f52594
<configuration>
    <net-file value="C:\Users\user\Sumo\2025-03-15-18-30-05\osm.net.xml.gz"/>
    <output-trip-file value="C:\Users\user\Sumo\2025-03-15-18-30-05\osm.truck.trips.xml"/>
    <route-file value="C:\Users\user\Sumo\2025-03-15-18-30-05\osm.truck.rou.xml"/>
    <prefix value="truck"/>
    <trip-attributes value="departLane=&quot;best&quot;"/>
    <fringe-start-attributes value="departSpeed=&quot;max&quot;"/>
    <vehicle-class value="truck"/>
    <fringe-factor value="5"/>
    <vclass value="truck"/>
    <via-edge-types value="highway.motorway,highway.motorway_link,highway.trunk_link,highway.primary_link,highway.secondary_link,highway.tertiary_link"/>
    <min-distance value="600.0"/>
    <min-distance.fringe value="10.0"/>
    <remove-loops value="True"/>
    <validate value="True"/>
    <insertion-density value="8.4"/>
</configuration>
-->

<!-- generated on 2025-03-15 18:31:22 by Eclipse SUMO duarouter Version 1.22.0
<duarouterConfiguration xmlns:xsi="http://www.w3.org/2001/XMLSchema-instance" xsi:noNamespaceSchemaLocation="http://sumo.dlr.de/xsd/duarouterConfiguration.xsd">

    <input>
        <net-file value="C:\Users\user\Sumo\2025-03-15-18-30-05\osm.net.xml.gz"/>
        <route-files value="C:\Users\user\Sumo\2025-03-15-18-30-05\osm.truck.trips.xml"/>
    </input>

    <output>
        <output-file value="C:\Users\user\Sumo\2025-03-15-18-30-05\osm.truck.trips.xml.tmp"/>
        <alternatives-output value="NUL"/>
        <write-trips value="true"/>
    </output>

    <processing>
        <remove-loops value="true"/>
    </processing>

    <time>
        <begin value="0.0"/>
        <end value="3600.0"/>
    </time>

    <report>
        <no-warnings value="true"/>
        <ignore-errors value="true"/>
        <no-step-log value="true"/>
    </report>

</duarouterConfiguration>
-->

<routes xmlns:xsi="http://www.w3.org/2001/XMLSchema-instance" xsi:noNamespaceSchemaLocation="http://sumo.dlr.de/xsd/routes_file.xsd">
    <vType id="truck_truck" vClass="truck"/>
    <trip id="truck0" type="truck_truck" depart="0.00" departLane="best" departSpeed="max" from="20550149" to="-13986777#0"/>
    <trip id="truck1" type="truck_truck" depart="1.32" departLane="best" from="-466067452" to="-4709182#7"/>
    <trip id="truck2" type="truck_truck" depart="2.63" departLane="best" from="460117241#2" to="435496780#1"/>
    <trip id="truck3" type="truck_truck" depart="3.95" departLane="best" from="580528155#2" to="-20550138#0"/>
    <trip id="truck4" type="truck_truck" depart="5.27" departLane="best" departSpeed="max" from="-580528153" to="-13986807#0"/>
    <trip id="truck5" type="truck_truck" depart="6.58" departLane="best" from="-435495852#1" to="13987470#4"/>
    <trip id="truck6" type="truck_truck" depart="7.90" departLane="best" from="-13984262#2" to="460775412#1"/>
    <trip id="truck7" type="truck_truck" depart="9.22" departLane="best" from="-20551341#2" to="20548876#0"/>
    <trip id="truck8" type="truck_truck" depart="10.53" departLane="best" from="-435495853#2" to="20551342"/>
    <trip id="truck9" type="truck_truck" depart="11.85" departLane="best" from="4717313#1" to="-1190768693"/>
    <trip id="truck10" type="truck_truck" depart="13.16" departLane="best" from="4709236#1" to="460117241#3"/>
    <trip id="truck11" type="truck_truck" depart="14.48" departLane="best" from="-4750841#7" to="-435134246"/>
    <trip id="truck12" type="truck_truck" depart="15.80" departLane="best" from="608660846#1" to="-579252758#0"/>
    <trip id="truck13" type="truck_truck" depart="17.11" departLane="best" from="-20548866#18" to="-20550161#0"/>
    <trip id="truck14" type="truck_truck" depart="18.43" departLane="best" from="-49326655#7" to="390204453#1"/>
    <trip id="truck15" type="truck_truck" depart="19.75" departLane="best" from="4709237#1" to="4709119"/>
    <trip id="truck16" type="truck_truck" depart="21.06" departLane="best" from="958035015#3" to="770918052"/>
    <trip id="truck17" type="truck_truck" depart="22.38" departLane="best" from="-49326656#3" to="20548887#0"/>
    <trip id="truck18" type="truck_truck" depart="23.70" departLane="best" from="4750861#4" to="390597012"/>
    <trip id="truck19" type="truck_truck" depart="25.01" departLane="best" departSpeed="max" from="49326676#0" to="20550156#1"/>
    <trip id="truck20" type="truck_truck" depart="26.33" departLane="best" from="435134262#0" to="-13987833#2"/>
    <trip id="truck22" type="truck_truck" depart="28.96" departLane="best" from="-20547020#6" to="-4709198#11"/>
    <trip id="truck23" type="truck_truck" depart="30.28" departLane="best" departSpeed="max" from="-20548881#2" to="-4750853#1"/>
    <trip id="truck24" type="truck_truck" depart="31.60" departLane="best" from="20550138#1" to="-590456070"/>
    <trip id="truck25" type="truck_truck" depart="32.91" departLane="best" from="-48526995#0" to="466067442#2"/>
    <trip id="truck26" type="truck_truck" depart="34.23" departLane="best" from="-4648552#5" to="592155948#4"/>
    <trip id="truck27" type="truck_truck" depart="35.54" departLane="best" departSpeed="max" from="20550164#0" to="390204459#9"/>
    <trip id="truck28" type="truck_truck" depart="36.86" departLane="best" departSpeed="max" from="-390597012" to="4693412#7"/>
    <trip id="truck29" type="truck_truck" depart="38.18" departLane="best" from="958035013#9" to="428066248#2"/>
    <trip id="truck30" type="truck_truck" depart="39.49" departLane="best" departSpeed="max" from="1365758905" to="435512535"/>
    <trip id="truck31" type="truck_truck" depart="40.81" departLane="best" departSpeed="max" from="49326651" to="4717288#2"/>
    <trip id="truck32" type="truck_truck" depart="42.13" departLane="best" from="435512521#0" to="-13987457"/>
    <trip id="truck33" type="truck_truck" depart="43.44" departLane="best" departSpeed="max" from="-435134259" to="592369191"/>
    <trip id="truck35" type="truck_truck" depart="46.08" departLane="best" departSpeed="max" from="329894574#0" to="592369191"/>
    <trip id="truck36" type="truck_truck" depart="47.39" departLane="best" departSpeed="max" from="590526260#0" to="1191694846"/>
    <trip id="truck37" type="truck_truck" depart="48.71" departLane="best" from="-4648281#1" to="4709225#2"/>
    <trip id="truck38" type="truck_truck" depart="50.03" departLane="best" from="13985249" to="4717321#1"/>
    <trip id="truck39" type="truck_truck" depart="51.34" departLane="best" from="13987463#5" to="590232064"/>
    <trip id="truck40" type="truck_truck" depart="52.66" departLane="best" from="49326898" to="-4709170#0"/>
    <trip id="truck41" type="truck_truck" depart="53.98" departLane="best" departSpeed="max" from="991854952" to="13987738#1"/>
    <trip id="truck42" type="truck_truck" depart="55.29" departLane="best" from="20548866#0" to="-157837955#3"/>
    <trip id="truck43" type="truck_truck" depart="56.61" departLane="best" from="-20549419#0" to="427818586"/>
    <trip id="truck44" type="truck_truck" depart="57.92" departLane="best" from="4709216#7" to="-770918056"/>
    <trip id="truck45" type="truck_truck" depart="59.24" departLane="best" departSpeed="max" from="991157802" to="20547025"/>
    <trip id="truck46" type="truck_truck" depart="60.56" departLane="best" departSpeed="max" from="770918055#0" to="577185246#0"/>
    <trip id="truck47" type="truck_truck" depart="61.87" departLane="best" departSpeed="max" from="-1220178763" to="466067434"/>
    <trip id="truck48" type="truck_truck" depart="63.19" departLane="best" from="427821318#0" to="20547037"/>
    <trip id="truck49" type="truck_truck" depart="64.51" departLane="best" from="-4648552#4" to="-428066259#1"/>
    <trip id="truck50" type="truck_truck" depart="65.82" departLane="best" departSpeed="max" from="-20549422#1" to="-955778450#2"/>
    <trip id="truck51" type="truck_truck" depart="67.14" departLane="best" departSpeed="max" from="-590526264#2" to="-60659681#3"/>
    <trip id="truck52" type="truck_truck" depart="68.46" departLane="best" from="518018242#0" to="-4717324"/>
    <trip id="truck53" type="truck_truck" depart="69.77" departLane="best" from="-60659681#0" to="4420669#15"/>
    <trip id="truck54" type="truck_truck" depart="71.09" departLane="best" from="590456072#0" to="579323357"/>
    <trip id="truck55" type="truck_truck" depart="72.41" departLane="best" from="4709200#1" to="428066247#2"/>
    <trip id="truck56" type="truck_truck" depart="73.72" departLane="best" from="-20547034" to="-435134241"/>
    <trip id="truck57" type="truck_truck" depart="75.04" departLane="best" departSpeed="max" from="4693394#0" to="20548866#11"/>
    <trip id="truck58" type="truck_truck" depart="76.36" departLane="best" from="-4709191#3" to="20547026#1"/>
    <trip id="truck59" type="truck_truck" depart="77.67" departLane="best" from="1011078576#2" to="-50599054#0"/>
    <trip id="truck60" type="truck_truck" depart="78.99" departLane="best" departSpeed="max" from="-1306541375" to="592104301"/>
    <trip id="truck61" type="truck_truck" depart="80.30" departLane="best" from="577205597#1" to="-49326658#4"/>
    <trip id="truck62" type="truck_truck" depart="81.62" departLane="best" departSpeed="max" from="-4709217#2" to="-20547022"/>
    <trip id="truck63" type="truck_truck" depart="82.94" departLane="best" from="577185246#0" to="592377333"/>
    <trip id="truck64" type="truck_truck" depart="84.25" departLane="best" from="-20547032#0" to="13985264#3"/>
    <trip id="truck65" type="truck_truck" depart="85.57" departLane="best" from="-157837955#1" to="4709219#1"/>
    <trip id="truck66" type="truck_truck" depart="86.89" departLane="best" from="4693447#0" to="-402177029#0"/>
    <trip id="truck68" type="truck_truck" depart="89.52" departLane="best" from="-4648281#2" to="580472451#2"/>
    <trip id="truck69" type="truck_truck" depart="90.84" departLane="best" departSpeed="max" from="-580534810#1" to="-4693394#0"/>
    <trip id="truck70" type="truck_truck" depart="92.15" departLane="best" from="-987818673#0" to="4709119"/>
    <trip id="truck71" type="truck_truck" depart="93.47" departLane="best" from="-428076711#2" to="49326667#1"/>
    <trip id="truck72" type="truck_truck" depart="94.79" departLane="best" departSpeed="max" from="991157800" to="428076711#2"/>
    <trip id="truck73" type="truck_truck" depart="96.10" departLane="best" departSpeed="max" from="-588685690" to="157837955#5"/>
    <trip id="truck74" type="truck_truck" depart="97.42" departLane="best" from="20549433#6" to="-4709186#2"/>
    <trip id="truck75" type="truck_truck" depart="98.74" departLane="best" from="-432772692" to="20551341#3"/>
    <trip id="truck76" type="truck_truck" depart="100.05" departLane="best" from="-435512523#0" to="-4709171#0"/>
    <trip id="truck77" type="truck_truck" depart="101.37" departLane="best" from="-435512521#0" to="590526264#2"/>
    <trip id="truck78" type="truck_truck" depart="102.68" departLane="best" from="49326670#2" to="-20548882#0"/>
    <trip id="truck79" type="truck_truck" depart="104.00" departLane="best" from="-4420669#10" to="435495856#1"/>
    <trip id="truck80" type="truck_truck" depart="105.32" departLane="best" departSpeed="max" from="-435134262#1" to="-427818592"/>
    <trip id="truck81" type="truck_truck" depart="106.63" departLane="best" from="-591859643" to="20550138#1"/>
    <trip id="truck82" type="truck_truck" depart="107.95" departLane="best" from="591858961#2" to="-4750828#1"/>
    <trip id="truck83" type="truck_truck" depart="109.27" departLane="best" from="-4717287#0" to="460117246#7"/>
    <trip id="truck84" type="truck_truck" depart="110.58" departLane="best" departSpeed="max" from="-20548875#2" to="779414602#5"/>
    <trip id="truck85" type="truck_truck" depart="111.90" departLane="best" departSpeed="max" from="-580534810#1" to="1236767281"/>
    <trip id="truck86" type="truck_truck" depart="113.22" departLane="best" from="4420669#15" to="435496777#1"/>
    <trip id="truck87" type="truck_truck" depart="114.53" departLane="best" from="955778450#0" to="-20548866#1"/>
    <trip id="truck88" type="truck_truck" depart="115.85" departLane="best" from="-49326911#0" to="-579273613"/>
    <trip id="truck89" type="truck_truck" depart="117.17" departLane="best" departSpeed="max" from="49326676#0" to="-4709227#0"/>
    <trip id="truck90" type="truck_truck" depart="118.48" departLane="best" departSpeed="max" from="-428066247#2" to="-995158081"/>
    <trip id="truck91" type="truck_truck" depart="119.80" departLane="best" departSpeed="max" from="-580528153" to="-4750853#3"/>
    <trip id="truck92" type="truck_truck" depart="121.12" departLane="best" from="460117244#1" to="591007469#1"/>
    <trip id="truck93" type="truck_truck" depart="122.43" departLane="best" departSpeed="max" from="-588742835" to="-577205597#0"/>
    <trip id="truck94" type="truck_truck" depart="123.75" departLane="best" departSpeed="max" from="1189288854" to="-157837960"/>
    <trip id="truck95" type="truck_truck" depart="125.07" departLane="best" departSpeed="max" from="995158081" to="49326663#0"/>
    <trip id="truck96" type="truck_truck" depart="126.38" departLane="best" from="-757646636#5" to="591858961#4"/>
    <trip id="truck97" type="truck_truck" depart="127.70" departLane="best" from="49326656#5" to="-435496778#0"/>
    <trip id="truck98" type="truck_truck" depart="129.01" departLane="best" from="-592336333#2" to="-4693394#5"/>
    <trip id="truck99" type="truck_truck" depart="130.33" departLane="best" from="-49326901#2" to="-20547025"/>
    <trip id="truck100" type="truck_truck" depart="131.65" departLane="best" from="-49326656#5" to="958033451"/>
    <trip id="truck101" type="truck_truck" depart="132.96" departLane="best" from="-4648281#2" to="4740622"/>
    <trip id="truck102" type="truck_truck" depart="134.28" departLane="best" departSpeed="max" from="-590526266#2" to="-770918057"/>
    <trip id="truck103" type="truck_truck" depart="135.60" departLane="best" from="608660846#1" to="991157799"/>
    <trip id="truck104" type="truck_truck" depart="136.91" departLane="best" from="1331842465#1" to="-465267600#3"/>
    <trip id="truck106" type="truck_truck" depart="139.55" departLane="best" from="-757646636#4" to="20550157#2"/>
    <trip id="truck107" type="truck_truck" depart="140.86" departLane="best" departSpeed="max" from="-991157799" to="4709201#2"/>
    <trip id="truck108" type="truck_truck" depart="142.18" departLane="best" from="-13987470#1" to="-20551337#0"/>
    <trip id="truck109" type="truck_truck" depart="143.50" departLane="best" from="-390204455#0" to="699916870#2"/>
    <trip id="truck110" type="truck_truck" depart="144.81" departLane="best" from="-20547021#0" to="-460117241#2"/>
    <trip id="truck111" type="truck_truck" depart="146.13" departLane="best" from="157837955#4" to="435496779#1"/>
    <trip id="truck112" type="truck_truck" depart="147.45" departLane="best" departSpeed="max" from="-435512533#1" to="-390581196#1"/>
    <trip id="truck113" type="truck_truck" depart="148.76" departLane="best" from="579323358#1" to="-4709225#0"/>
    <trip id="truck114" type="truck_truck" depart="150.08" departLane="best" from="157837955#2" to="-49326913#5"/>
    <trip id="truck115" type="truck_truck" depart="151.39" departLane="best" from="-579323358#1" to="20550164#3"/>
    <trip id="truck116" type="truck_truck" depart="152.71" departLane="best" from="-772445111#0" to="592137663#3"/>
    <trip id="truck117" type="truck_truck" depart="154.03" departLane="best" from="-428080107" to="4648281#4"/>
    <trip id="truck118" type="truck_truck" depart="155.34" departLane="best" from="-4420669#13" to="592369192"/>
    <trip id="truck119" type="truck_truck" depart="156.66" departLane="best" departSpeed="max" from="390597021#0" to="49326655#6"/>
    <trip id="truck120" type="truck_truck" depart="157.98" departLane="best" from="-20546955#1" to="1190768692"/>
    <trip id="truck121" type="truck_truck" depart="159.29" departLane="best" departSpeed="max" from="991859795" to="991157801"/>
    <trip id="truck122" type="truck_truck" depart="160.61" departLane="best" departSpeed="max" from="-20546955#3" to="-4693394#3"/>
    <trip id="truck123" type="truck_truck" depart="161.93" departLane="best" from="-4648281#2" to="592116100"/>
    <trip id="truck124" type="truck_truck" depart="163.24" departLane="best" from="958116508#0" to="580540664#0"/>
    <trip id="truck125" type="truck_truck" depart="164.56" departLane="best" from="-48526068#6" to="460117247"/>
    <trip id="truck126" type="truck_truck" depart="165.88" departLane="best" from="-20548866#19" to="958035013#8"/>
    <trip id="truck127" type="truck_truck" depart="167.19" departLane="best" departSpeed="max" from="23341492" to="-1220178769"/>
    <trip id="truck128" type="truck_truck" depart="168.51" departLane="best" from="4750829#1" to="-49326655#1"/>
    <trip id="truck129" type="truck_truck" depart="169.83" departLane="best" from="390204459#6" to="592357559#1"/>
    <trip id="truck130" type="truck_truck" depart="171.14" departLane="best" departSpeed="max" from="-20550161#2" to="-390204459#4"/>
    <trip id="truck131" type="truck_truck" depart="172.46" departLane="best" from="-466067437#0" to="390204455#0"/>
    <trip id="truck132" type="truck_truck" depart="173.77" departLane="best" from="435512521#4" to="-4648552#5"/>
    <trip id="truck133" type="truck_truck" depart="175.09" departLane="best" departSpeed="max" from="20550137" to="-4717324"/>
    <trip id="truck134" type="truck_truck" depart="176.41" departLane="best" from="-592365299#4" to="590526264#2"/>
    <trip id="truck135" type="truck_truck" depart="177.72" departLane="best" from="49326653#9" to="-20550155#0"/>
    <trip id="truck136" type="truck_truck" depart="179.04" departLane="best" departSpeed="max" from="-580534810#1" to="-4750852#0"/>
    <trip id="truck137" type="truck_truck" depart="180.36" departLane="best" departSpeed="max" from="-1164029055" to="4709230#4"/>
    <trip id="truck138" type="truck_truck" depart="181.67" departLane="best" from="-20550140#1" to="-4717316#0"/>
    <trip id="truck139" type="truck_truck" depart="182.99" departLane="best" from="-460117248#0" to="20548885#2"/>
    <trip id="truck140" type="truck_truck" depart="184.31" departLane="best" from="-580540663" to="-13984261#1"/>
    <trip id="truck141" type="truck_truck" depart="185.62" departLane="best" from="581192086#6" to="20548876#1"/>
    <trip id="truck143" type="truck_truck" depart="188.26" departLane="best" departSpeed="max" from="-246446006#4" to="-401753885#6"/>
    <trip id="truck144" type="truck_truck" depart="189.57" departLane="best" from="-4709218#1" to="-590232065#1"/>
    <trip id="truck145" type="truck_truck" depart="190.89" departLane="best" departSpeed="max" from="4709226#0" to="562503481#1"/>
    <trip id="truck146" type="truck_truck" depart="192.21" departLane="best" departSpeed="max" from="580540662#0" to="-466067444"/>
    <trip id="truck147" type="truck_truck" depart="193.52" departLane="best" from="460117244#0" to="-20551344#0"/>
    <trip id="truck148" type="truck_truck" depart="194.84" departLane="best" from="4709197#6" to="585193584#1"/>
    <trip id="truck149" type="truck_truck" depart="196.15" departLane="best" from="-518018242#0" to="401753885#3"/>
    <trip id="truck150" type="truck_truck" depart="197.47" departLane="best" from="49326680#3" to="772559184"/>
    <trip id="truck151" type="truck_truck" depart="198.79" departLane="best" from="4717316#1" to="580540666"/>
    <trip id="truck152" type="truck_truck" depart="200.10" departLane="best" from="-13984261#2" to="4709186#1"/>
    <trip id="truck153" type="truck_truck" depart="201.42" departLane="best" from="-4717452" to="592116097#2"/>
    <trip id="truck154" type="truck_truck" depart="202.74" departLane="best" departSpeed="max" from="4709230#0" to="578988014"/>
    <trip id="truck155" type="truck_truck" depart="204.05" departLane="best" from="4709207#4" to="-329894574#2"/>
    <trip id="truck157" type="truck_truck" depart="206.69" departLane="best" departSpeed="max" from="-590836838#1" to="-49326659#0"/>
    <trip id="truck158" type="truck_truck" depart="208.00" departLane="best" from="-4709225#5" to="-4709189#0"/>
    <trip id="truck159" type="truck_truck" depart="209.32" departLane="best" departSpeed="max" from="-1337872965" to="-460117266#1"/>
    <trip id="truck160" type="truck_truck" depart="210.64" departLane="best" from="-4717313#0" to="579234147#0"/>
    <trip id="truck161" type="truck_truck" depart="211.95" departLane="best" from="757646633#0" to="-4750854#1"/>
    <trip id="truck162" type="truck_truck" depart="213.27" departLane="best" from="20550155#1" to="592377337#2"/>
    <trip id="truck163" type="truck_truck" depart="214.59" departLane="best" from="779414602#8" to="20547036#2"/>
    <trip id="truck164" type="truck_truck" depart="215.90" departLane="best" from="592365299#4" to="-390204459#3"/>
    <trip id="truck165" type="truck_truck" depart="217.22" departLane="best" departSpeed="max" from="770918055#0" to="-4420669#15"/>
    <trip id="truck166" type="truck_truck" depart="218.53" departLane="best" from="701791542" to="-4717558"/>
    <trip id="truck167" type="truck_truck" depart="219.85" departLane="best" from="-20549417#0" to="-955778450#1"/>
    <trip id="truck168" type="truck_truck" depart="221.17" departLane="best" from="4420669#12" to="-49326672#0"/>
    <trip id="truck169" type="truck_truck" depart="222.48" departLane="best" from="20547023" to="13987740#1"/>
    <trip id="truck170" type="truck_truck" depart="223.80" departLane="best" departSpeed="max" from="-49326662#3" to="20550155#2"/>
    <trip id="truck171" type="truck_truck" depart="225.12" departLane="best" departSpeed="max" from="-460117265" to="-460588677#1"/>
    <trip id="truck172" type="truck_truck" depart="226.43" departLane="best" from="958116508#1" to="-465267600#7"/>
    <trip id="truck173" type="truck_truck" depart="227.75" departLane="best" from="460117249#0" to="435496769"/>
    <trip id="truck174" type="truck_truck" depart="229.07" departLane="best" from="-48526921#1" to="-20548876#0"/>
    <trip id="truck175" type="truck_truck" depart="230.38" departLane="best" from="390519490#0" to="-577205597#1"/>
    <trip id="truck176" type="truck_truck" depart="231.70" departLane="best" from="-4709226#1" to="49326893"/>
    <trip id="truck177" type="truck_truck" depart="233.02" departLane="best" from="435512525" to="-49326655#7"/>
    <trip id="truck178" type="truck_truck" depart="234.33" departLane="best" departSpeed="max" from="-4709218#7" to="608660846#3"/>
    <trip id="truck179" type="truck_truck" depart="235.65" departLane="best" from="-49326909" to="-49326651"/>
    <trip id="truck180" type="truck_truck" depart="236.97" departLane="best" departSpeed="max" from="-20550148#2" to="757646637#1"/>
    <trip id="truck181" type="truck_truck" depart="238.28" departLane="best" from="-592336333#2" to="-435512521#2"/>
    <trip id="truck182" type="truck_truck" depart="239.60" departLane="best" from="580563883" to="390581215"/>
    <trip id="truck183" type="truck_truck" depart="240.91" departLane="best" from="-4709205#0" to="20548881#2"/>
    <trip id="truck184" type="truck_truck" depart="242.23" departLane="best" from="1011078576#1" to="-48526725#0"/>
    <trip id="truck185" type="truck_truck" depart="243.55" departLane="best" departSpeed="max" from="-580540666" to="20550160#2"/>
    <trip id="truck186" type="truck_truck" depart="244.86" departLane="best" from="-591858961#4" to="590456072#1"/>
    <trip id="truck187" type="truck_truck" depart="246.18" departLane="best" departSpeed="max" from="4709226#0" to="-435512523#0"/>
    <trip id="truck188" type="truck_truck" depart="247.50" departLane="best" departSpeed="max" from="-20547030#1" to="13987744"/>
    <trip id="truck189" type="truck_truck" depart="248.81" departLane="best" from="20549435#2" to="579234150#2"/>
    <trip id="truck190" type="truck_truck" depart="250.13" departLane="best" from="4750829#7" to="-4709208#1"/>
    <trip id="truck191" type="truck_truck" depart="251.45" departLane="best" departSpeed="max" from="390597024" to="-4709186#2"/>
    <trip id="truck192" type="truck_truck" depart="252.76" departLane="best" from="-428067054#7" to="-13985273#0"/>
    <trip id="truck193" type="truck_truck" depart="254.08" departLane="best" from="460117238#2" to="13984262#5"/>
    <trip id="truck194" type="truck_truck" depart="255.40" departLane="best" from="49326658#1" to="20548887#0"/>
    <trip id="truck195" type="truck_truck" depart="256.71" departLane="best" from="-579234150#1" to="427818594"/>
    <trip id="truck196" type="truck_truck" depart="258.03" departLane="best" departSpeed="max" from="-428067046#5" to="460117240#2"/>
    <trip id="truck197" type="truck_truck" depart="259.35" departLane="best" from="-592377333" to="-4709217#0"/>
    <trip id="truck198" type="truck_truck" depart="260.66" departLane="best" departSpeed="max" from="329894574#0" to="-1190731584"/>
    <trip id="truck199" type="truck_truck" depart="261.98" departLane="best" from="-4648013#2" to="4709230#1"/>
    <trip id="truck200" type="truck_truck" depart="263.29" departLane="best" departSpeed="max" from="-20548888" to="-772450686#0"/>
    <trip id="truck201" type="truck_truck" depart="264.61" departLane="best" from="-402177029#0" to="655097772#1"/>
    <trip id="truck202" type="truck_truck" depart="265.93" departLane="best" from="-757646634" to="-157837960"/>
    <trip id="truck203" type="truck_truck" depart="267.24" departLane="best" from="460117243#3" to="49326893"/>
    <trip id="truck204" type="truck_truck" depart="268.56" departLane="best" departSpeed="max" from="-590809202" to="4750871"/>
    <trip id="truck205" type="truck_truck" depart="269.88" departLane="best" from="390581196#1" to="-958035015#1"/>
    <trip id="truck206" type="truck_truck" depart="271.19" departLane="best" from="157837956" to="592377345"/>
    <trip id="truck208" type="truck_truck" depart="273.83" departLane="best" from="435512524#3" to="13987470#1"/>
    <trip id="truck209" type="truck_truck" depart="275.14" departLane="best" from="-4750883" to="20548881#1"/>
    <trip id="truck210" type="truck_truck" depart="276.46" departLane="best" departSpeed="max" from="580540659" to="4709198#1"/>
    <trip id="truck212" type="truck_truck" depart="279.09" departLane="best" from="-460117241#2" to="428066225"/>
    <trip id="truck213" type="truck_truck" depart="280.41" departLane="best" from="4693447#0" to="20546956#1"/>
    <trip id="truck214" type="truck_truck" depart="281.73" departLane="best" from="20549429#5" to="-4750846#1"/>
    <trip id="truck215" type="truck_truck" depart="283.04" departLane="best" departSpeed="max" from="-20547018" to="48526068#7"/>
    <trip id="truck216" type="truck_truck" depart="284.36" departLane="best" from="592377321#0" to="-49326898"/>
    <trip id="truck217" type="truck_truck" depart="285.67" departLane="best" departSpeed="max" from="-987818673#1" to="-428066227"/>
    <trip id="truck218" type="truck_truck" depart="286.99" departLane="best" from="-435512524#3" to="460117231"/>
    <trip id="truck219" type="truck_truck" depart="288.31" departLane="best" from="-435135727#3" to="-20548866#20"/>
    <trip id="truck221" type="truck_truck" depart="290.94" departLane="best" from="-579244822" to="-466067433"/>
    <trip id="truck222" type="truck_truck" depart="292.26" departLane="best" from="580472450" to="590526264#2"/>
    <trip id="truck223" type="truck_truck" depart="293.57" departLane="best" from="-13987463#3" to="460117239#0"/>
    <trip id="truck224" type="truck_truck" depart="294.89" departLane="best" from="49326663#1" to="4709227#3"/>
    <trip id="truck225" type="truck_truck" depart="296.21" departLane="best" from="-49326658#10" to="-1190768693"/>
    <trip id="truck226" type="truck_truck" depart="297.52" departLane="best" departSpeed="max" from="-4750871" to="4709215#2"/>
    <trip id="truck227" type="truck_truck" depart="298.84" departLane="best" departSpeed="max" from="49326661#0" to="60659681#1"/>
    <trip id="truck228" type="truck_truck" depart="300.16" departLane="best" from="-579323358#0" to="4709198#2"/>
    <trip id="truck229" type="truck_truck" depart="301.47" departLane="best" departSpeed="max" from="-997075506" to="390204452"/>
    <trip id="truck230" type="truck_truck" depart="302.79" departLane="best" from="-435495854" to="-4709170#0"/>
    <trip id="truck231" type="truck_truck" depart="304.11" departLane="best" departSpeed="max" from="-588134516" to="-13986805#0"/>
    <trip id="truck232" type="truck_truck" depart="305.42" departLane="best" from="-4750829#5" to="-435512524#1"/>
    <trip id="truck233" type="truck_truck" depart="306.74" departLane="best" from="49326913#4" to="-435496777#0"/>
    <trip id="truck234" type="truck_truck" depart="308.05" departLane="best" from="-590983902#0" to="-401753885#7"/>
    <trip id="truck235" type="truck_truck" depart="309.37" departLane="best" from="20549417#1" to="-13986798"/>
    <trip id="truck236" type="truck_truck" depart="310.69" departLane="best" from="49326680#1" to="20549429#7"/>
    <trip id="truck237" type="truck_truck" depart="312.00" departLane="best" from="-13984262#4" to="428067046#4"/>
    <trip id="truck238" type="truck_truck" depart="313.32" departLane="best" departSpeed="max" from="-20550164#3" to="1220178763"/>
    <trip id="truck239" type="truck_truck" depart="314.64" departLane="best" from="-13987463#14" to="590983899#0"/>
    <trip id="truck240" type="truck_truck" depart="315.95" departLane="best" departSpeed="max" from="-435134259" to="-50599069"/>